file 96290968 1711022608                                        
version 3
run test_AllAppsJSON-0-20240321-12:57:44-19882
attr configname test_AllAppsJSON
attr datetime 20240321-12:57:44
attr datetimef 20240321-125744
attr experiment test_AllAppsJSON
attr inifile QoEStudies.ini
attr iterationvars ""
attr iterationvarsd ""
attr iterationvarsf ""
attr measurement ""
attr network baselineTestQoS
attr processid 19882
attr repetition 0
attr replication #0
attr resultdir results
attr runnumber 0
attr seedset 0
config description "Test config minimal: Configuration for all five applications."
config extends liteCbaselineTestTokenQoS_base
config *.configurator.config "xmldoc(\"configs/routing/testrouter.xml\")"
config sim-time-limit 200s
config *.nVID 1
config *.nLVD 1
config *.nFDO 1
config *.nSSH 1
config *.nVIP 1
config *.ncVIP 0
config *.router*.ppp[0].queue.typename HtbQueue
config *.router*.ppp[0].queue.numQueues 5
config *.router*.ppp[0].queue.queue[*].typename DropTailQueue
config *.router*.ppp[0].queue.packetCapacity -1
config *.router*.ppp[0].queue.htbHysterisis false
config *.router*.ppp[0].queue.scheduler.adjustHTBTreeValuesForCorectness false
config *.router*.ppp[0].queue.scheduler.checkHTBTreeValuesForCorectness false
config *.router*.ppp[0].queue.scheduler.changeTimes []
config *.router*.ppp[0].queue.htbTreeConfig "readJSON(\"json/AllClients.json\")"
config *.router*.ppp[0].queue.classifier.defaultGateIndex 0
config *.router0.ppp[0].queue.classifier.packetFilters "[expr(ipv4.srcAddress.str() =~ \"10.0.0.0\"),expr(ipv4.srcAddress.str() =~ \"10.0.0.4\"),expr(ipv4.srcAddress.str() =~ \"10.0.0.8\"),expr(ipv4.srcAddress.str() =~ \"10.0.0.12\"),expr(ipv4.srcAddress.str() =~ \"10.0.0.16\")]"
config *.router1.ppp[0].queue.classifier.packetFilters "[expr(ipv4.destAddress.str() =~ \"10.0.0.0\"),expr(ipv4.destAddress.str() =~ \"10.0.0.4\"),expr(ipv4.destAddress.str() =~ \"10.0.0.8\"),expr(ipv4.destAddress.str() =~ \"10.0.0.12\"),expr(ipv4.destAddress.str() =~ \"10.0.0.16\")]"
config **.connFIX0.datarate 100000000bps
config **.connFIX0.delay 40ms
config description "All five applications - base configuration without any resource allocation"
config network baselineTestQoS
config sim-time-limit 400s
config output-vector-file results/test_AllAppsJSON/test_AllAppsJSON-0.vec
config output-scalar-file results/test_AllAppsJSON/test_AllAppsJSON-0.sca
config **.crcMode "\"computed\""
config *.host*.numApps 1
config *.hostFDO[*].hasTcp true
config *.hostFDO[*].app[0].typename TcpFileDownloadApp
config *.hostFDO[*].app[0].localAddress "\"\""
config *.hostFDO[*].app[0].localPort -1
config *.hostFDO[*].app[0].connectAddress "\"serverFDO\""
config *.hostFDO[*].app[0].connectPort 1042
config *.hostFDO[*].app[0].startTime uniform(0.01s,1s)
config *.hostFDO[*].app[0].stopTime -1s
config *.hostFDO[*].app[0].numRequestsPerSession 1
config *.hostFDO[*].app[0].requestLength 800B
config *.hostFDO[*].app[0].replyLength 10000KiB
config *.hostFDO[*].app[0].thinkTime 0.01s
config *.hostFDO[*].app[0].idleInterval 1s
config *.hostFDO[*].app[0].reconnectInterval 1s
config *.hostFDO[*].app[0].stopOperationExtraTime -1s
config *.hostFDO[*].app[0].stopOperationTimeout 2s
config *.serverFDO.hasTcp true
config *.serverFDO.numApps 1
config *.serverFDO.app[0].typename TcpGenericServerApp
config *.serverFDO.app[0].localAddress "\"\""
config *.serverFDO.app[0].localPort 1042
config *.serverFDO.app[0].replyDelay 0s
config *.serverFDO.app[0].stopOperationExtraTime -1s
config *.serverFDO.app[0].stopOperationTimeout 2s
config **.hostVID[*].hasTcp true
config **.hostVID[*].app[0].typename improved5gns.apps.TCPVideoStreamCliAppV2lite
config **.hostVID[*].app[0].localAddress "\"\""
config **.hostVID[*].app[0].localPort -1
config **.hostVID[*].app[0].connectAddress "\"serverVID\""
config **.hostVID[*].app[0].connectPort 1042
config **.hostVID[*].app[0].dataTransferMode "\"object\""
config **.hostVID[*].app[0].startTime uniform(0.01s,1s)
config **.hostVID[*].app[0].stopTime -1s
config **.hostVID[*].app[0].idleInterval 1s
config **.hostVID[*].app[0].requestLength 200B
config **.hostVID[*].app[0].reconnectInterval 1s
config **.hostVID[*].app[0].numRequestsPerSession 1
config **.hostVID[*].app[0].thinkTime 1s
config **.hostVID[*].app[0].video_resolution "\"360 480 720 1080\""
config **.hostVID[*].app[0].manifest_size 100000
config **.hostVID[*].app[0].video_buffer_max_length 40s
config **.hostVID[*].app[0].video_duration int(uniform(240s,320s))
config **.hostVID[*].app[0].segment_length 5s
config **.hostVID[*].app[0].useFlexibleBitrate "\"flexible\""
config *.serverVID.hasTcp true
config *.serverVID.numApps 1
config *.serverVID.app[0].typename TcpGenericServerApp
config *.serverVID.app[0].localAddress "\"\""
config *.serverVID.app[0].localPort 1042
config *.serverVID.app[0].replyDelay 0s
config *.serverVID.app[0].stopOperationExtraTime -1s
config *.serverVID.app[0].stopOperationTimeout 2s
config **.hostLVD[*].hasTcp true
config **.hostLVD[*].app[0].typename TCPLiveVideoStreamCliAppLite
config **.hostLVD[*].app[0].localAddress "\"\""
config **.hostLVD[*].app[0].localPort -1
config **.hostLVD[*].app[0].connectAddress "\"serverLVD\""
config **.hostLVD[*].app[0].connectPort 1043
config **.hostLVD[*].app[0].dataTransferMode "\"object\""
config **.hostLVD[*].app[0].startTime uniform(0.01s,1s)
config **.hostLVD[*].app[0].stopTime -1s
config **.hostLVD[*].app[0].idleInterval 1s
config **.hostLVD[*].app[0].requestLength 200B
config **.hostLVD[*].app[0].reconnectInterval 1s
config **.hostLVD[*].app[0].numRequestsPerSession 1
config **.hostLVD[*].app[0].thinkTime 1s
config **.hostLVD[*].app[0].video_resolution "\"240 360 480 720 1080\""
config **.hostLVD[*].app[0].manifest_size 100000
config **.hostLVD[*].app[0].video_buffer_max_length 6s
config **.hostLVD[*].app[0].video_duration int(uniform(40s,70s))
config **.hostLVD[*].app[0].segment_length 1s
config **.hostLVD[*].app[0].useFlexibleBitrate "\"flexible\""
config **.hostLVD[*].app[0].video_type "\"live\""
config **.hostLVD[*].app[0].delay_threshold 4
config **.hostLVD[*].app[0].speedup_rate 1.05
config *.serverLVD.hasTcp true
config *.serverLVD.numApps 1
config *.serverLVD.app[0].typename TcpGenericServerApp
config *.serverLVD.app[0].localAddress "\"\""
config *.serverLVD.app[0].localPort 1043
config *.serverLVD.app[0].replyDelay 0s
config *.serverLVD.app[0].stopOperationExtraTime -1s
config *.serverLVD.app[0].stopOperationTimeout 2s
config **.hostSSH[*].hasTcp true
config **.hostSSH[*].app[0].typename TcpSimpleSshAppV2lite
config **.hostSSH[*].app[0].localAddress "\"\""
config **.hostSSH[*].app[0].localPort -1
config **.hostSSH[*].app[0].connectAddress "\"serverSSH\""
config **.hostSSH[*].app[0].connectPort 22
config **.hostSSH[*].app[0].startTime uniform(0.01s,1s)
config **.hostSSH[*].app[0].stopTime -1s
config **.hostSSH[*].app[0].numCommands 1
config **.hostSSH[*].app[0].commandLength 10B
config **.hostSSH[*].app[0].keyPressDelay 0.05s
config **.hostSSH[*].app[0].commandOutputLength 500B
config **.hostSSH[*].app[0].thinkTime 1s
config **.hostSSH[*].app[0].idleInterval 1s
config **.hostSSH[*].app[0].reconnectInterval 1s
config **.hostSSH[*].app[0].stopOperationExtraTime -1s
config **.hostSSH[*].app[0].stopOperationTimeout 2s
config *.serverSSH.hasTcp true
config *.serverSSH.numApps 1
config *.serverSSH.app[*].typename TcpGenericServerApp
config *.serverSSH.app[*].localAddress "\"\""
config *.serverSSH.app[*].localPort 22
config *.serverSSH.app[*].replyDelay 0s
config *.serverSSH.app[*].stopOperationExtraTime -1s
config *.serverSSH.app[*].stopOperationTimeout 2s
config **.hostVIP[*].hasUdp true
config **.hostVIP[*].app[0].typename SimpleVoipReceiver
config **.hostVIP[*].app[0].localPort 2000
config **.hostVIP[*].app[0].emodelIe 5
config **.hostVIP[*].app[0].emodelBpl 10
config **.hostVIP[*].app[0].emodelA 5
config **.hostVIP[*].app[0].emodelRo 93.2
config **.hostVIP[*].app[0].playoutDelay 20ms
config **.hostVIP[*].app[0].adaptivePlayoutDelay false
config **.hostVIP[*].app[0].bufferSpace 20
config **.hostVIP[*].app[0].mosSpareTime 1s
config **.serverVIP.hasUdp true
config **.serverVIP.numApps parent.nVIP
config **.serverVIP.app[*].typename SimpleVoipSender
config **.serverVIP.app[*].localPort -1
config **.serverVIP.app[*].destAddress "\"hostVIP[\" + string(index) + \"]\""
config **.serverVIP.app[*].destPort 2000
config **.serverVIP.app[*].talkPacketSize 40B
config **.serverVIP.app[*].talkspurtDuration "weibull(1.423s, 0.824s)"
config **.serverVIP.app[*].silenceDuration "weibull(0.899s, 1.089s)"
config **.serverVIP.app[*].packetizationInterval 20ms
config **.serverVIP.app[*].startTime uniform(0.01s,1s)
config **.serverVIP.app[*].stopTime -1s
config **.hostcVIP[*].hasUdp true
config **.hostcVIP[*].app[0].typename improved5gns.apps.SimpleVoipReceiverCustom
config **.hostcVIP[*].app[0].localPort 2000
config **.hostcVIP[*].app[0].emodelIe 5
config **.hostcVIP[*].app[0].emodelBpl 10
config **.hostcVIP[*].app[0].emodelA 5
config **.hostcVIP[*].app[0].emodelRo 93.2
config **.hostcVIP[*].app[0].playoutDelay 20ms
config **.hostcVIP[*].app[0].adaptivePlayoutDelay false
config **.hostcVIP[*].app[0].bufferSpace 20
config **.hostcVIP[*].app[0].mosSpareTime 1s
config **.servercVIP.hasUdp true
config **.servercVIP.numApps parent.ncVIP
config **.servercVIP.app[*].typename improved5gns.apps.SimpleVoipSenderCustom
config **.servercVIP.app[*].localPort -1
config **.servercVIP.app[*].destPort 2000
config **.servercVIP.app[*].destAddress "\"hostcVIP[\" + string(index) + \"]\""
config **.servercVIP.app[*].talkPacketSize 40B
config **.servercVIP.app[*].talkspurtDuration "weibull(1.423s, 0.824s)"
config **.servercVIP.app[*].silenceDuration "weibull(0.899s, 1.089s)"
config **.servercVIP.app[*].packetizationInterval 2ms
config **.servercVIP.app[*].startTime uniform(0.01s,1s)
config **.servercVIP.app[*].stopTime -1s
config sim-time-limit 250s
config num-rngs 1
config seed-0-mt 5
config output-scalar-file-append false
config record-eventlog false
config cmdenv-express-mode false
config cmdenv-output-file log.txt
config cmdenv-autoflush true
config **.cmdenv-log-level FATAL
config *.visualizer.*.interfaceTableVisualizer.displayInterfaceTables true
config **.tcp.typename Tcp
config **.udp.typename Udp
config **.packetCapacity 500
config **.tcp.advertisedWindow 65535
config **.tcp.delayedAcksEnabled false
config **.tcp.nagleEnabled true
config **.tcp.limitedTransmitEnabled false
config **.tcp.increasedIWEnabled false
config **.tcp.sackSupport false
config **.tcp.windowScalingSupport false
config **.tcp.timestampSupport false
config **.tcp.mss 1452
config **.tcp.tcpAlgorithmClass "\"TcpReno\""
config **.tcp.*.*.vector-recording true
config **.tcp.*.rtt.result-recording-modes +vector
config **.tcp.*.*.result-recording-modes -vector
config **.host*.app*.*.vector-recording true
config **.ppp.*xPk*.vector-recording true
config **.vector-recording false

vector 0 baselineTestQoS.hostVID[0].app[0] numActiveSessions:vector ETV
attr interpolationmode sample-hold
attr recordingmode vector
attr source sum(connect)
attr title "number of active sessions"
vector 1 baselineTestQoS.hostLVD[0].app[0] numActiveSessions:vector ETV
attr interpolationmode sample-hold
attr recordingmode vector
attr source sum(connect)
attr title "number of active sessions"
vector 2 baselineTestQoS.hostFDO[0].app[0] numActiveSessions:vector ETV
attr interpolationmode sample-hold
attr recordingmode vector
attr source sum(connect)
attr title "number of active sessions"
vector 3 baselineTestQoS.hostSSH[0].app[0] numActiveSessions:vector ETV
attr "" ""
attr interpolationmode sample-hold
attr recordingmode vector
attr source sum(connect)
attr title "number of active sessions"
vector 4 baselineTestQoS.hostVID[0].app[0] DASHBufferLength:vector ETV
attr recordingmode vector
attr title "Video buffer length (in seconds)"
vector 5 baselineTestQoS.hostVID[0].app[0] DASHVideoPlaybackPointer:vector ETV
attr recordingmode vector
attr title "Video playback pointer"
vector 6 baselineTestQoS.hostVID[0].app[0] DASHVideoBitrate:vector ETV
attr recordingmode vector
attr title "Requested video bitrate"
vector 7 baselineTestQoS.hostVID[0].app[0] DASHVideoResolution:vector ETV
attr recordingmode vector
attr title "Requested video resolution"
vector 8 baselineTestQoS.hostLVD[0].app[0] DASHBufferLength:vector ETV
attr recordingmode vector
attr title "Video buffer length (in seconds)"
vector 9 baselineTestQoS.hostLVD[0].app[0] DASHVideoPlaybackPointer:vector ETV
attr recordingmode vector
attr title "Video playback pointer"
vector 10 baselineTestQoS.hostLVD[0].app[0] DASHVideoBitrate:vector ETV
attr recordingmode vector
attr title "Requested video bitrate"
vector 11 baselineTestQoS.hostLVD[0].app[0] DASHVideoResolution:vector ETV
attr recordingmode vector
attr title "Requested video resolution"
vector 12 baselineTestQoS.hostFDO[0].ppp[0].ppp txPk:vector(packetBytes) ETV
attr interpolationmode none
attr recordingmode vector(packetBytes)
attr source packetSentToLower
attr title "packets transmitted, packetBytes"
vector 13 baselineTestQoS.router0.ppp[3].ppp rxPkOk:vector(packetBytes) ETV
attr interpolationmode none
attr recordingmode vector(packetBytes)
attr source rxPkOk
attr title "packets received OK, packetBytes"
vector 14 baselineTestQoS.router0.ppp[0].ppp txPk:vector(packetBytes) ETV
attr interpolationmode none
attr recordingmode vector(packetBytes)
attr source packetSentToLower
attr title "packets transmitted, packetBytes"
vector 15 baselineTestQoS.hostVID[0].app[0] DASHVideoPlaybackStatus:vector ETV
attr recordingmode vector
attr title "Video playback status (playing=1, buffering=0)"
vector 16 baselineTestQoS.hostVID[0].ppp[0].ppp txPk:vector(packetBytes) ETV
attr interpolationmode none
attr recordingmode vector(packetBytes)
attr source packetSentToLower
attr title "packets transmitted, packetBytes"
vector 17 baselineTestQoS.router0.ppp[1].ppp rxPkOk:vector(packetBytes) ETV
attr interpolationmode none
attr recordingmode vector(packetBytes)
attr source rxPkOk
attr title "packets received OK, packetBytes"
vector 18 baselineTestQoS.router1.ppp[0].ppp rxPkOk:vector(packetBytes) ETV
attr interpolationmode none
attr recordingmode vector(packetBytes)
attr source rxPkOk
attr title "packets received OK, packetBytes"
vector 19 baselineTestQoS.router1.ppp[3].ppp txPk:vector(packetBytes) ETV
attr interpolationmode none
attr recordingmode vector(packetBytes)
attr source packetSentToLower
attr title "packets transmitted, packetBytes"
vector 20 baselineTestQoS.serverFDO.ppp[0].ppp rxPkOk:vector(packetBytes) ETV
attr interpolationmode none
attr recordingmode vector(packetBytes)
attr source rxPkOk
attr title "packets received OK, packetBytes"
vector 21 baselineTestQoS.serverFDO.ppp[0].ppp txPk:vector(packetBytes) ETV
attr interpolationmode none
attr recordingmode vector(packetBytes)
attr source packetSentToLower
attr title "packets transmitted, packetBytes"
vector 22 baselineTestQoS.router1.ppp[3].ppp rxPkOk:vector(packetBytes) ETV
attr interpolationmode none
attr recordingmode vector(packetBytes)
attr source rxPkOk
attr title "packets received OK, packetBytes"
vector 23 baselineTestQoS.router1.ppp[0].ppp txPk:vector(packetBytes) ETV
attr interpolationmode none
attr recordingmode vector(packetBytes)
attr source packetSentToLower
attr title "packets transmitted, packetBytes"
vector 24 baselineTestQoS.router1.ppp[1].ppp txPk:vector(packetBytes) ETV
attr interpolationmode none
attr recordingmode vector(packetBytes)
attr source packetSentToLower
attr title "packets transmitted, packetBytes"
vector 25 baselineTestQoS.serverVID.ppp[0].ppp rxPkOk:vector(packetBytes) ETV
attr interpolationmode none
attr recordingmode vector(packetBytes)
attr source rxPkOk
attr title "packets received OK, packetBytes"
vector 26 baselineTestQoS.serverVID.ppp[0].ppp txPk:vector(packetBytes) ETV
attr interpolationmode none
attr recordingmode vector(packetBytes)
attr source packetSentToLower
attr title "packets transmitted, packetBytes"
vector 27 baselineTestQoS.router1.ppp[1].ppp rxPkOk:vector(packetBytes) ETV
attr interpolationmode none
attr recordingmode vector(packetBytes)
attr source rxPkOk
attr title "packets received OK, packetBytes"
vector 28 baselineTestQoS.router0.ppp[0].ppp rxPkOk:vector(packetBytes) ETV
attr interpolationmode none
attr recordingmode vector(packetBytes)
attr source rxPkOk
attr title "packets received OK, packetBytes"
vector 29 baselineTestQoS.router0.ppp[3].ppp txPk:vector(packetBytes) ETV
attr interpolationmode none
attr recordingmode vector(packetBytes)
attr source packetSentToLower
attr title "packets transmitted, packetBytes"
vector 30 baselineTestQoS.hostFDO[0].ppp[0].ppp rxPkOk:vector(packetBytes) ETV
attr interpolationmode none
attr recordingmode vector(packetBytes)
attr source rxPkOk
attr title "packets received OK, packetBytes"
vector 31 baselineTestQoS.hostFDO[0].app[0] packetSent:vector(packetBytes) ETV
attr interpolationmode none
attr recordingmode vector(packetBytes)
attr source packetSent
attr title "packets sent, packetBytes"
vector 32 baselineTestQoS.router0.ppp[1].ppp txPk:vector(packetBytes) ETV
attr interpolationmode none
attr recordingmode vector(packetBytes)
attr source packetSentToLower
attr title "packets transmitted, packetBytes"
vector 33 baselineTestQoS.hostVID[0].ppp[0].ppp rxPkOk:vector(packetBytes) ETV
attr interpolationmode none
attr recordingmode vector(packetBytes)
attr source rxPkOk
attr title "packets received OK, packetBytes"
vector 34 baselineTestQoS.hostSSH[0].ppp[0].ppp txPk:vector(packetBytes) ETV
attr interpolationmode none
attr recordingmode vector(packetBytes)
attr source packetSentToLower
attr title "packets transmitted, packetBytes"
vector 35 baselineTestQoS.router0.ppp[4].ppp rxPkOk:vector(packetBytes) ETV
attr interpolationmode none
attr recordingmode vector(packetBytes)
attr source rxPkOk
attr title "packets received OK, packetBytes"
vector 36 baselineTestQoS.hostFDO[0].tcp.conn-34 rtt:vector ETV
attr interpolationmode sample-hold
attr recordingmode vector
vector 37 baselineTestQoS.hostFDO[0].app[0] packetReceived:vector(packetBytes) ETV
attr interpolationmode none
attr recordingmode vector(packetBytes)
attr source packetReceived
attr title "packets received, packetBytes"
vector 38 baselineTestQoS.hostFDO[0].app[0] endToEndDelay:vector ETV
attr interpolationmode none
attr recordingmode vector
attr source dataAge(packetReceived)
attr title "end-to-end delay"
attr unit s
vector 39 baselineTestQoS.hostVID[0].tcp.conn-35 rtt:vector ETV
attr interpolationmode sample-hold
attr recordingmode vector
vector 40 baselineTestQoS.hostVID[0].app[0] endToEndDelay:vector ETV
attr interpolationmode none
attr recordingmode vector
attr source dataAge(packetReceived)
attr title "end-to-end delay"
attr unit s
vector 41 baselineTestQoS.router1.ppp[4].ppp txPk:vector(packetBytes) ETV
attr interpolationmode none
attr recordingmode vector(packetBytes)
attr source packetSentToLower
attr title "packets transmitted, packetBytes"
vector 42 baselineTestQoS.serverSSH.ppp[0].ppp rxPkOk:vector(packetBytes) ETV
attr interpolationmode none
attr recordingmode vector(packetBytes)
attr source rxPkOk
attr title "packets received OK, packetBytes"
vector 43 baselineTestQoS.serverSSH.ppp[0].ppp txPk:vector(packetBytes) ETV
attr interpolationmode none
attr recordingmode vector(packetBytes)
attr source packetSentToLower
attr title "packets transmitted, packetBytes"
vector 44 baselineTestQoS.router1.ppp[4].ppp rxPkOk:vector(packetBytes) ETV
attr interpolationmode none
attr recordingmode vector(packetBytes)
attr source rxPkOk
attr title "packets received OK, packetBytes"
vector 45 baselineTestQoS.serverFDO.tcp.conn-36 rtt:vector ETV
attr interpolationmode sample-hold
attr recordingmode vector
vector 46 baselineTestQoS.serverVID.tcp.conn-37 rtt:vector ETV
attr interpolationmode sample-hold
attr recordingmode vector
vector 47 baselineTestQoS.router0.ppp[4].ppp txPk:vector(packetBytes) ETV
attr interpolationmode none
attr recordingmode vector(packetBytes)
attr source packetSentToLower
attr title "packets transmitted, packetBytes"
vector 48 baselineTestQoS.hostSSH[0].ppp[0].ppp rxPkOk:vector(packetBytes) ETV
attr interpolationmode none
attr recordingmode vector(packetBytes)
attr source rxPkOk
attr title "packets received OK, packetBytes"
vector 49 baselineTestQoS.hostLVD[0].app[0] DASHVideoPlaybackStatus:vector ETV
attr recordingmode vector
attr title "Video playback status (playing=1, buffering=0)"
vector 50 baselineTestQoS.hostLVD[0].ppp[0].ppp txPk:vector(packetBytes) ETV
attr interpolationmode none
attr recordingmode vector(packetBytes)
attr source packetSentToLower
attr title "packets transmitted, packetBytes"
vector 51 baselineTestQoS.router0.ppp[2].ppp rxPkOk:vector(packetBytes) ETV
attr interpolationmode none
attr recordingmode vector(packetBytes)
attr source rxPkOk
attr title "packets received OK, packetBytes"
vector 52 baselineTestQoS.router1.ppp[2].ppp txPk:vector(packetBytes) ETV
attr interpolationmode none
attr recordingmode vector(packetBytes)
attr source packetSentToLower
attr title "packets transmitted, packetBytes"
vector 53 baselineTestQoS.serverLVD.ppp[0].ppp rxPkOk:vector(packetBytes) ETV
attr interpolationmode none
attr recordingmode vector(packetBytes)
attr source rxPkOk
attr title "packets received OK, packetBytes"
vector 54 baselineTestQoS.serverLVD.ppp[0].ppp txPk:vector(packetBytes) ETV
attr interpolationmode none
attr recordingmode vector(packetBytes)
attr source packetSentToLower
attr title "packets transmitted, packetBytes"
vector 55 baselineTestQoS.router1.ppp[2].ppp rxPkOk:vector(packetBytes) ETV
attr interpolationmode none
attr recordingmode vector(packetBytes)
attr source rxPkOk
attr title "packets received OK, packetBytes"
vector 56 baselineTestQoS.serverVIP.ppp[0].ppp txPk:vector(packetBytes) ETV
attr interpolationmode none
attr recordingmode vector(packetBytes)
attr source packetSentToLower
attr title "packets transmitted, packetBytes"
vector 57 baselineTestQoS.router1.ppp[5].ppp rxPkOk:vector(packetBytes) ETV
attr interpolationmode none
attr recordingmode vector(packetBytes)
attr source rxPkOk
attr title "packets received OK, packetBytes"
vector 58 baselineTestQoS.router0.ppp[2].ppp txPk:vector(packetBytes) ETV
attr interpolationmode none
attr recordingmode vector(packetBytes)
attr source packetSentToLower
attr title "packets transmitted, packetBytes"
vector 59 baselineTestQoS.hostLVD[0].ppp[0].ppp rxPkOk:vector(packetBytes) ETV
attr interpolationmode none
attr recordingmode vector(packetBytes)
attr source rxPkOk
attr title "packets received OK, packetBytes"
vector 60 baselineTestQoS.hostLVD[0].app[0] DASHliveDelay:vector ETV
attr recordingmode vector
attr title "Playback delay of live video"
vector 61 baselineTestQoS.hostVID[0].app[0] DASHReceivedBytes:vector ETV
attr recordingmode vector
attr title "Bytes received with last segment"
vector 62 baselineTestQoS.router0.ppp[5].ppp txPk:vector(packetBytes) ETV
attr interpolationmode none
attr recordingmode vector(packetBytes)
attr source packetSentToLower
attr title "packets transmitted, packetBytes"
vector 63 baselineTestQoS.hostVIP[0].ppp[0].ppp rxPkOk:vector(packetBytes) ETV
attr interpolationmode none
attr recordingmode vector(packetBytes)
attr source rxPkOk
attr title "packets received OK, packetBytes"
vector 64 baselineTestQoS.hostVIP[0].app[0] endToEndDelay:vector ETV
attr recordingmode vector
attr source voipPacketDelay
attr title "VoIP Packet End-to-End Delay"
attr unit s
vector 65 baselineTestQoS.hostLVD[0].tcp.conn-40 rtt:vector ETV
attr interpolationmode sample-hold
attr recordingmode vector
vector 66 baselineTestQoS.hostLVD[0].app[0] endToEndDelay:vector ETV
attr interpolationmode none
attr recordingmode vector
attr source dataAge(packetReceived)
attr title "end-to-end delay"
attr unit s
vector 67 baselineTestQoS.serverLVD.tcp.conn-41 rtt:vector ETV
attr interpolationmode sample-hold
attr recordingmode vector
vector 68 baselineTestQoS.hostSSH[0].app[0] packetSent:vector(packetBytes) ETV
attr interpolationmode none
attr recordingmode vector(packetBytes)
attr source packetSent
attr title "packets sent, packetBytes"
vector 69 baselineTestQoS.hostSSH[0].tcp.conn-38 rtt:vector ETV
attr interpolationmode sample-hold
attr recordingmode vector
vector 70 baselineTestQoS.hostSSH[0].app[0] packetReceived:vector(packetBytes) ETV
attr interpolationmode none
attr recordingmode vector(packetBytes)
attr source packetReceived
attr title "packets received, packetBytes"
vector 71 baselineTestQoS.hostSSH[0].app[0] endToEndDelay:vector ETV
attr interpolationmode none
attr recordingmode vector
attr source dataAge(packetReceived)
attr title "end-to-end delay"
attr unit s
vector 72 baselineTestQoS.serverSSH.tcp.conn-39 rtt:vector ETV
attr interpolationmode sample-hold
attr recordingmode vector
vector 73 baselineTestQoS.hostLVD[0].app[0] DASHReceivedBytes:vector ETV
attr recordingmode vector
attr title "Bytes received with last segment"
vector 74 baselineTestQoS.hostLVD[0].app[0] DASHEstimatedBitrate:vector ETV
attr recordingmode vector
attr title "Estimated video bitrate"
vector 75 baselineTestQoS.hostVIP[0].app[0] packetLossRate:vector ETV
attr recordingmode vector
attr source voipPacketLossRate
attr title "VoIP Packet Loss"
attr unit ratio
vector 76 baselineTestQoS.hostVIP[0].app[0] playoutDelay:vector ETV
attr recordingmode vector
attr source voipPlayoutDelay
attr title "VoIP Playout Delay"
attr unit s
vector 77 baselineTestQoS.hostVIP[0].app[0] playoutLossRate:vector ETV
attr recordingmode vector
attr source voipPlayoutLossRate
attr title "VoIP Playout Loss Rate"
attr unit ratio
vector 78 baselineTestQoS.hostVIP[0].app[0] mos:vector ETV
attr recordingmode vector
attr source voipMosRate
attr title "VoIP MOS"
attr unit MOS
vector 79 baselineTestQoS.hostVIP[0].app[0] taildropLossRate:vector ETV
attr recordingmode vector
attr source voipTaildropLossRate
attr title "VoIP Tail Drop Loss Rate"
attr unit ratio
vector 80 baselineTestQoS.hostSSH[0].app[0] roundTripTime:vector ETV
attr recordingmode vector
attr title "Recorded network RTT"
72	26021 298 26694 45752 1.570439966425 2.133345925241 8 0.0800230192 0.082747587616 0.642929015616 0.051676196471042
vector 81 baselineTestQoS.hostSSH[0].tcp.conn-42 rtt:vector ETV
attr interpolationmode sample-hold
attr recordingmode vector
vector 82 baselineTestQoS.serverSSH.tcp.conn-43 rtt:vector ETV
attr interpolationmode sample-hold
attr recordingmode vector
82	26568 304 160481 180303 5.373790776441 5.934108541241 8 0.0800230192 0.0801593936 0.6403408216 0.051254561597094
vector 83 baselineTestQoS.hostSSH[0].tcp.conn-44 rtt:vector ETV
attr interpolationmode sample-hold
attr recordingmode vector
vector 84 baselineTestQoS.serverSSH.tcp.conn-45 rtt:vector ETV
attr interpolationmode sample-hold
attr recordingmode vector
84	27121 306 325124 353541 9.174457152441 9.735406388086 8 0.0800230568 0.0803307248 0.640972292445 0.051355812532507
vector 85 baselineTestQoS.hostSSH[0].tcp.conn-46 rtt:vector ETV
attr interpolationmode sample-hold
attr recordingmode vector
vector 86 baselineTestQoS.serverSSH.tcp.conn-47 rtt:vector ETV
attr interpolationmode sample-hold
attr recordingmode vector
vector 87 baselineTestQoS.hostFDO[0].app[0] mosScore:vector ETV
attr recordingmode vector
attr source mosScore
attr title "Estimated Mean Opinion Score for the file download"
vector 88 baselineTestQoS.hostFDO[0].app[0] downloadTime:vector ETV
attr recordingmode vector
attr source downloadTime
attr title "Time it took to download the file in each session"
vector 89 baselineTestQoS.hostFDO[0].app[0] averageDownloadThroughput:vector ETV
attr recordingmode vector
attr source averageDownloadThroughput
attr title "Average throughput of each download"
45	28227 6138 253 470633 0.415082828086 13.348857276086 162 0.0801418584 0.0803376848 13.0139163064 1.0454446463499
vector 90 baselineTestQoS.hostFDO[0].tcp.conn-48 rtt:vector ETV
attr interpolationmode sample-hold
attr recordingmode vector
vector 91 baselineTestQoS.serverFDO.tcp.conn-49 rtt:vector ETV
attr interpolationmode sample-hold
attr recordingmode vector
86	34614 295 453723 477157 12.9759648064 13.5373777744 8 0.0800670928 0.0803307248 0.6416338848 0.051461795370105
vector 92 baselineTestQoS.hostSSH[0].tcp.conn-50 rtt:vector ETV
attr interpolationmode sample-hold
attr recordingmode vector
vector 93 baselineTestQoS.serverSSH.tcp.conn-51 rtt:vector ETV
attr interpolationmode sample-hold
attr recordingmode vector
93	35158 295 580593 596953 16.7778226256 17.3381403904 8 0.0800230192 0.0801593936 0.6403408216 0.051254561597094
vector 94 baselineTestQoS.hostSSH[0].tcp.conn-52 rtt:vector ETV
attr interpolationmode sample-hold
attr recordingmode vector
vector 95 baselineTestQoS.serverSSH.tcp.conn-53 rtt:vector ETV
attr interpolationmode sample-hold
attr recordingmode vector
95	35702 295 747452 760777 20.5784890016 21.1388067664 8 0.0800230192 0.0801593936 0.6403408216 0.051254561597094
vector 96 baselineTestQoS.hostSSH[0].tcp.conn-54 rtt:vector ETV
attr interpolationmode sample-hold
attr recordingmode vector
vector 97 baselineTestQoS.serverSSH.tcp.conn-55 rtt:vector ETV
attr interpolationmode sample-hold
attr recordingmode vector
97	36246 292 893432 910834 24.3803623288 24.9406800936 8 0.0800230192 0.0801593936 0.6403408216 0.051254561597094
23	36538 959731 40 971934 0.254856832086 27.0409666704 32768 47 1499 47502859 71072447381
28	996269 959872 57 973494 0.294860912086 27.0810865904 32768 47 1499 47502859 71072447381
91	1956141 6052 504498 991958 14.510778520086 27.4471167552 162 0.0801418584 0.0825169872 13.016480093514 1.0458615393054
14	1962193 896355 15 1001106 0.214752470486 27.7245002368 32768 47 847 1553224 76769136
18	2858548 896516 27 1001875 0.254756550486 27.7645039968 32768 47 847 1553224 76769136
vector 98 baselineTestQoS.hostSSH[0].tcp.conn-56 rtt:vector ETV
attr interpolationmode sample-hold
attr recordingmode vector
vector 99 baselineTestQoS.serverSSH.tcp.conn-57 rtt:vector ETV
attr interpolationmode sample-hold
attr recordingmode vector
vector 100 baselineTestQoS.hostFDO[0].tcp.conn-58 rtt:vector ETV
attr interpolationmode sample-hold
attr recordingmode vector
vector 101 baselineTestQoS.serverFDO.tcp.conn-59 rtt:vector ETV
attr interpolationmode sample-hold
attr recordingmode vector
99	3755564 302 1011560 1029409 28.1810287048 28.7413464696 8 0.0800230192 0.0801593936 0.6403408216 0.051254561597094
vector 102 baselineTestQoS.hostSSH[0].tcp.conn-60 rtt:vector ETV
attr interpolationmode sample-hold
attr recordingmode vector
vector 103 baselineTestQoS.serverSSH.tcp.conn-61 rtt:vector ETV
attr interpolationmode sample-hold
attr recordingmode vector
103	3756117 308 1131481 1155364 31.9816950808 32.5420128456 8 0.0800230192 0.0801593936 0.6403408216 0.051254561597094
vector 104 baselineTestQoS.hostSSH[0].tcp.conn-62 rtt:vector ETV
attr interpolationmode sample-hold
attr recordingmode vector
vector 105 baselineTestQoS.serverSSH.tcp.conn-63 rtt:vector ETV
attr interpolationmode sample-hold
attr recordingmode vector
105	3756676 311 1300724 1316239 35.7824795344 36.3427972992 8 0.0800230192 0.0801593936 0.6403408216 0.051254561597094
vector 106 baselineTestQoS.hostSSH[0].tcp.conn-64 rtt:vector ETV
attr interpolationmode sample-hold
attr recordingmode vector
vector 107 baselineTestQoS.serverSSH.tcp.conn-65 rtt:vector ETV
attr interpolationmode sample-hold
attr recordingmode vector
0	3757238 30 0 17 0 0.229773239663 2 0 1 1 1
1	3757268 32 0 5162 0 0.872024980441 2 0 1 1 1
2	3757300 158 0 1025816 0 28.5690332496 7 0 1 3 3
3	3757458 540 0 1395898 0 38.3828054704 22 0 1 11 11
4	3757998 1440 0 1433789 0 39.277114922041 53 0 37 1622 52994
5	3759438 1065 0 1433789 0 39.277114922041 39 0 38 741 19019
6	3760503 425 0 1326945 0 36.6691774264 16 195 4385 34641 126114959
7	3760928 425 0 1326945 0 36.6691774264 16 360 1080 11880 10670400
8	3761353 1911 0 1459443 0 39.8037312224 77 0 2 114 190
9	3763264 965 0 1431911 0 39.2416934216 38 0 37 703 17575
10	3764229 735 0 1420462 0 39 40 106 5876 146513 608923167
11	3764964 732 0 1420462 0 39 40 240 1080 39840 41558400
12	3765696 569116 10 1465963 0.214651962486 39.9803306152 20323 47 847 957593 47040283
13	4334812 569062 12 1465965 0.214652470486 39.9803310912 20323 47 847 957593 47040283
14	4903874 427424 1001122 1465968 27.7246201568 39.9804310912 15229 47 847 721099 35449709
15	5331298 49 17 16438 0.229773239663 1.277114922041 2 0 1 1 1
16	5331347 402213 20 1465611 0.229773239663 39.973030136 14724 47 247 695232 33466508
17	5733560 402209 22 1465613 0.229773747663 39.973030612 14724 47 247 695232 33466508
18	6135769 425535 1001882 1464863 27.7646239168 39.946580256675 15160 47 847 717816 35291928
19	6561304 568489 29 1464865 0.254756550486 39.946580256675 20301 47 847 956559 46991685
20	7129793 568328 31 1464867 0.254756691286 39.946580394275 20301 47 847 956559 46991685
21	7698121 610116 35 1464871 0.254756691286 39.946580394275 20343 47 1499 30479189 45686635087
22	8308237 610096 37 1464873 0.254756832086 39.946581693475 20343 47 1499 30479189 45686635087
23	8918333 497104 971935 1464886 27.0410865904 39.961809312861 16615 47 1499 24132543 36111742505
24	9415437 401075 44 1464187 0.269877827663 39.9327966872 14679 47 247 693117 33367103
25	9816512 400876 46 1464189 0.269877968463 39.9327968248 14679 47 247 693117 33367103
26	10217388 431349 50 1464193 0.269877968463 39.9327968248 14723 47 1499 22034111 33022665813
27	10648737 431438 52 1464195 0.269878109263 39.932798124 14723 47 1499 22034111 33022665813
28	11080175 496400 973510 1465954 27.0812065104 39.9803185232 16590 47 1499 24097916 36060050232
29	11576575 609450 59 1465956 0.294860912086 39.9803185232 20320 47 1499 30444712 45634954064
30	12186025 609653 61 1465958 0.294861420086 39.9803306152 20320 47 1499 30444712 45634954064
31	12795678 84 65 1022917 0.294861420086 28.4888165912 3 800 800 2400 1920000
32	12795762 431504 82 1465604 0.309982189263 39.973018044 14723 47 1499 22034111 33022665813
33	13227266 431577 84 1465606 0.309982697263 39.973030136 14723 47 1499 22034111 33022665813
34	13658843 5915 172 1464814 0.370099526425 39.9432699288 215 47 127 14949 1228047
35	13664758 5919 174 1464816 0.370100034425 39.9432704048 215 47 127 14949 1228047
36	13670677 35 185 185 0.374946542486 0.374946542486 1 0.0800851224 0.0800851224 0.0800851224 0.006413626829823
37	13670712 609408 193 1465961 0.375078078486 39.9803306152 20311 496 1452 29489660 42818037968
38	14280120 789479 193 1465961 0.375078078486 39.9803306152 20311 0.0401371088 12.977970471914 130742.00685574 1094156.5889181
39	15069599 593 215 1328621 0.390014539663 36.7493051328 16 0.0800318424 0.0801277064 1.2810846624 0.10257365397693
40	15070192 546803 223 1465609 0.390146075663 39.973030136 14706 0.0401371088 3.8181069608 24017.873459082 53465.664341205
41	15616995 5860 234 1463470 0.410204114425 39.9032545536 213 47 127 14815 1218269
42	15622855 5861 236 1463472 0.410204255225 39.9032546912 213 47 127 14815 1218269
43	15628716 5600 240 1463476 0.410204255225 39.9032546912 203 47 575 19225 4426739
44	15634316 5597 242 1463478 0.410204396025 39.9032548928 203 47 575 19225 4426739
46	15639913 14105 290 1463573 0.430250449263 39.9220239448 380 0.0801182712 0.081183906759 30.521237345937 2.4514381696112
47	15654018 5592 307 1464807 0.450308476025 39.9432688128 203 47 575 19225 4426739
48	15659610 5596 309 1464809 0.450308984025 39.9432699288 203 47 575 19225 4426739
49	15665206 49 5162 49466 0.872024980441 2.2416934216 2 0 1 1 1
50	15665255 346237 5165 1459446 0.872024980441 39.8037312224 12735 47 247 606549 30484007
51	16011492 346608 5167 1459448 0.872025488441 39.8037316984 12735 47 247 606549 30484007
52	16358100 346627 5849 1460934 0.912033328441 39.8438354584 12735 47 247 606549 30484007
53	16704727 344696 5851 1460936 0.912033469241 39.843835596 12735 47 247 606549 30484007
54	17049423 369559 5855 1458072 0.912033469241 39.7636071352 12734 47 1499 18999377 28462699747
55	17418982 369470 5857 1458074 0.912033610041 39.7636074504 12734 47 1499 18999377 28462699747
56	17788452 39782 6247 1464881 0.939424795322 39.961709152861 1380 75 75 103500 7762500
57	17828234 39782 6249 1464883 0.939424955322 39.961709312861 1380 75 75 103500 7762500
58	17868016 370255 6610 1459438 0.952137690041 39.8037289704 12734 47 1499 18999377 28462699747
59	18238271 371946 6612 1459440 0.952138198041 39.8037312224 12734 47 1499 18999377 28462699747
60	18610217 2079 6616 1431911 0.952138198041 39.2416934216 78 0.952138198041 3.0453719144 200.77639568408 531.68059793298
61	18612296 474 6638 1297287 0.952380050063 35.6691774264 15 100000 2740625 18963750 42156577343750
62	18612770 39471 6996 1464890 0.979530955322 39.961815312861 1378 75 75 103350 7751250
63	18652241 39471 6998 1464892 0.979531655322 39.961816012861 1378 75 75 103350 7751250
64	18691712 51318 7001 1464895 0.979531655322 39.961816012861 1378 0.060013201539 0.065560178339 82.86529217979 4.9831583975517
65	18743030 1497 8446 1423570 1.032170040441 39.0803077472 40 0.0800318424 0.080324996675 3.205955869891 0.25695402629949
66	18744527 473606 8454 1459443 1.032301576441 39.8037312224 12693 0.0401371088 1.0052497808 4113.2316227844 1838.1608553567
67	19218133 12894 9862 1460938 1.072405950041 39.843835596 348 0.0802099904 0.080535012675 27.951864670691 2.2451350455948
68	19231027 3333 23003 1464990 1.450308984025 39.963014928 121 40 40 4840 193600
69	19234360 298 25741 44052 1.530421352825 2.093287567641 8 0.0800230192 0.082707843616 0.642978583616 0.051683922625473
70	19234658 2360 25755 1464812 1.530428632825 39.9432699288 86 40 528 9640 3067840
71	19237018 4441 25755 1464812 1.530428632825 39.9432699288 119 0.0400117232 0.042743182016 4.768918622906 0.19112225342812
73	19241459 1237 27438 1459443 1.594535550841 39.8037312224 40 16375 734500 18400875 9524248921875
74	19242696 1554 32387 1459443 1.756142662841 39.8037312224 39 810.60788958347 5782.203915196 198643.73452309 1048857040.4949
75	19244250 407 39260 1354934 1.945913629025 37.481123668897 14 0 0.0066225165562914 0.0066225165562914 4.3857725538354e-05
76	19244657 432 39260 1354934 1.945913629025 37.481123668897 14 0.02 0.02 0.28 0.0056
77	19245089 390 39260 1354934 1.945913629025 37.481123668897 14 0 0 0 0
78	19245479 586 39260 1354934 1.945913629025 37.481123668897 14 4.2195810737181 4.3690260566731 61.016919810469 265.95391732823
79	19246065 390 39260 1354934 1.945913629025 37.481123668897 14 0 0 0 0
80	19246455 377 44071 1314837 2.093337791641 36.3026929256 10 0.0800367687 0.080372322952 0.800927351396 0.06414857121204
81	19246832 304 159041 178893 5.333772162841 5.893953943641 8 0.0800230192 0.0801123688 0.6402941496 0.051247081313874
83	19247136 306 322949 351942 9.134438538841 9.695228110486 8 0.0800230192 0.080251981245 0.640901940445 0.051344484047975
85	19247442 296 452182 475647 12.9359461928 13.4971994968 8 0.0800247248 0.080225935914 0.641479239914 0.051436986683649
87	19247738 54 469228 990646 13.310347654486 27.4086071336 2 5 5 10 50
88	19247792 80 469228 990646 13.310347654486 27.4086071336 2 13.0154862344 13.018050021514 26.033536255914 338.8725082805
89	19247872 81 469228 990646 13.310347654486 27.4086071336 2 6292801.138774 6294040.6931156 12586841.83189 79214294418751
90	19247953 39 503069 503069 14.470642234486 14.470642234486 1 0.0800851224 0.0800851224 0.0800851224 0.006413626829823
92	19247992 294 579878 595285 16.737804012 17.2979857928 8 0.0800230192 0.0801123688 0.6402941496 0.051247081313874
94	19248286 293 745720 759500 20.538470388 21.0986521688 8 0.0800230192 0.0801123688 0.6402941496 0.051247081313874
96	19248579 294 891279 910055 24.3403437152 24.900525496 8 0.0800230192 0.0801123688 0.6402941496 0.051247081313874
98	19248873 302 1010127 1028638 28.1410100912 28.701191872 8 0.0800230192 0.0801123688 0.6402941496 0.051247081313874
100	19249175 39 1025808 1025808 28.5689017136 28.5689017136 1 0.0800851224 0.0800851224 0.0800851224 0.006413626829823
101	19249214 5667 1026961 1464206 28.6090379992 39.937578984 142 0.0801418584 0.082109154525 11.4086828432 0.91660919846023
102	19254881 310 1130683 1153270 31.9416764672 32.501858248 8 0.0800230192 0.0801123688 0.6402941496 0.051247081313874
104	19255191 309 1299786 1314829 35.7424609208 36.3026427016 8 0.0800230192 0.0801123688 0.6402941496 0.051247081313874
106	19255500 233 1448074 1464798 39.5431272968 39.9432591288 6 0.0800230192 0.0801123688 0.4802442008 0.038439088253535
107	19255733 193 1450309 1463474 39.5831459104 39.9032546912 5 0.0800230568 0.0800297712 0.4001318376 0.032021097514862
107	19255926 117 1466313 1473659 39.9832812624 40.1434636752 3 0.0800230192 0.0801593936 0.240208984 0.019233464082232
101	19256043 775 1467053 1518746 40.0179166688 41.54433268 20 0.0803376848 0.0803376848 1.606753696 0.12908287198048
vector 108 baselineTestQoS.hostFDO[0].tcp.conn-68 rtt:vector ETV
attr interpolationmode sample-hold
attr recordingmode vector
vector 109 baselineTestQoS.serverFDO.tcp.conn-69 rtt:vector ETV
attr interpolationmode sample-hold
attr recordingmode vector
vector 110 baselineTestQoS.hostSSH[0].tcp.conn-66 rtt:vector ETV
attr interpolationmode sample-hold
attr recordingmode vector
vector 111 baselineTestQoS.serverSSH.tcp.conn-67 rtt:vector ETV
attr interpolationmode sample-hold
attr recordingmode vector
111	19257320 310 1571288 1598601 43.3839334312 43.944251196 8 0.0800230192 0.0801593936 0.6403408216 0.051254561597094
vector 112 baselineTestQoS.hostSSH[0].tcp.conn-70 rtt:vector ETV
attr interpolationmode sample-hold
attr recordingmode vector
vector 113 baselineTestQoS.serverSSH.tcp.conn-71 rtt:vector ETV
attr interpolationmode sample-hold
attr recordingmode vector
113	19257881 310 1712929 1736239 47.1845998072 47.744917572 8 0.0800230192 0.0801593936 0.6403408216 0.051254561597094
vector 114 baselineTestQoS.hostSSH[0].tcp.conn-72 rtt:vector ETV
attr interpolationmode sample-hold
attr recordingmode vector
vector 115 baselineTestQoS.serverSSH.tcp.conn-73 rtt:vector ETV
attr interpolationmode sample-hold
attr recordingmode vector
115	19258442 330 1868994 1887368 50.985414666754 51.547098684354 8 0.0802177648 0.0803307248 0.641951797954 0.051512775434452
vector 116 baselineTestQoS.hostSSH[0].tcp.conn-74 rtt:vector ETV
attr interpolationmode sample-hold
attr recordingmode vector
vector 117 baselineTestQoS.serverSSH.tcp.conn-75 rtt:vector ETV
attr interpolationmode sample-hold
attr recordingmode vector
109	19259023 6467 1546404 2037552 42.706253924 55.641496401154 162 0.0801418584 0.0818639176 13.015384335554 1.0456828552511
117	19265490 328 2006663 2028507 54.787543535554 55.347861300354 8 0.0800230192 0.0801593936 0.6403408216 0.051254561597094
vector 118 baselineTestQoS.hostFDO[0].tcp.conn-76 rtt:vector ETV
attr interpolationmode sample-hold
attr recordingmode vector
vector 119 baselineTestQoS.serverFDO.tcp.conn-77 rtt:vector ETV
attr interpolationmode sample-hold
attr recordingmode vector
vector 120 baselineTestQoS.hostSSH[0].tcp.conn-78 rtt:vector ETV
attr interpolationmode sample-hold
attr recordingmode vector
vector 121 baselineTestQoS.serverSSH.tcp.conn-79 rtt:vector ETV
attr interpolationmode sample-hold
attr recordingmode vector
121	19266320 321 2113654 2136179 58.588209911554 59.1491587384 8 0.0800230568 0.0803275248 0.640971883646 0.05135573050567
vector 122 baselineTestQoS.hostSSH[0].tcp.conn-80 rtt:vector ETV
attr interpolationmode sample-hold
attr recordingmode vector
vector 123 baselineTestQoS.serverSSH.tcp.conn-81 rtt:vector ETV
attr interpolationmode sample-hold
attr recordingmode vector
123	19266892 310 2242568 2262511 62.3896035896 62.9499213544 8 0.0800230192 0.0801593936 0.6403408216 0.051254561597094
67	19267202 8893 1471617 2350464 40.120363616 64.844140636 236 0.080152724 0.08053878 18.955110352038 1.5224419898535
vector 124 baselineTestQoS.hostSSH[0].tcp.conn-82 rtt:vector ETV
attr interpolationmode sample-hold
attr recordingmode vector
vector 125 baselineTestQoS.serverSSH.tcp.conn-83 rtt:vector ETV
attr interpolationmode sample-hold
attr recordingmode vector
vector 126 baselineTestQoS.hostLVD[0].tcp.conn-84 rtt:vector ETV
attr interpolationmode sample-hold
attr recordingmode vector
vector 127 baselineTestQoS.serverLVD.tcp.conn-85 rtt:vector ETV
attr interpolationmode sample-hold
attr recordingmode vector
125	19276597 311 2397148 2407557 66.1902699656 66.7505877304 8 0.0800230192 0.0801593936 0.6403408216 0.051254561597094
23	19276908 983233 1466168 2436145 39.981809312861 68.022167136 32768 47 1499 47207220 70606559538
28	20260141 983243 1465970 2436819 39.9804384432 68.0272557448 32768 47 1499 47207220 70606559538
18	21243384 919491 1466292 2471147 39.9832773648 68.8697895608 32768 47 847 1551500 76250264
14	22162875 919481 1465984 2471560 39.9805510112 68.896752824 32768 47 847 1551460 76244904
119	23082356 6281 2051447 2503138 56.803417645154 69.7384945296 162 0.0801418584 0.081631718846 13.015218742846 1.0456555884816
vector 128 baselineTestQoS.hostSSH[0].tcp.conn-86 rtt:vector ETV
attr interpolationmode sample-hold
attr recordingmode vector
vector 129 baselineTestQoS.serverSSH.tcp.conn-87 rtt:vector ETV
attr interpolationmode sample-hold
attr recordingmode vector
vector 130 baselineTestQoS.hostFDO[0].tcp.conn-88 rtt:vector ETV
attr interpolationmode sample-hold
attr recordingmode vector
vector 131 baselineTestQoS.serverFDO.tcp.conn-89 rtt:vector ETV
attr interpolationmode sample-hold
attr recordingmode vector
129	23089139 311 2507989 2522246 69.9909363416 70.5512541064 8 0.0800230192 0.0801593936 0.6403408216 0.051254561597094
vector 132 baselineTestQoS.hostSSH[0].tcp.conn-90 rtt:vector ETV
attr interpolationmode sample-hold
attr recordingmode vector
vector 133 baselineTestQoS.serverSSH.tcp.conn-91 rtt:vector ETV
attr interpolationmode sample-hold
attr recordingmode vector
133	23089701 311 2630952 2652405 73.7916027176 74.3519204824 8 0.0800230192 0.0801593936 0.6403408216 0.051254561597094
vector 134 baselineTestQoS.hostSSH[0].tcp.conn-92 rtt:vector ETV
attr interpolationmode sample-hold
attr recordingmode vector
vector 135 baselineTestQoS.serverSSH.tcp.conn-93 rtt:vector ETV
attr interpolationmode sample-hold
attr recordingmode vector
135	23090263 311 2755979 2779379 77.5922690936 78.1525868584 8 0.0800230192 0.0801593936 0.6403408216 0.051254561597094
vector 136 baselineTestQoS.hostSSH[0].tcp.conn-94 rtt:vector ETV
attr interpolationmode sample-hold
attr recordingmode vector
vector 137 baselineTestQoS.serverSSH.tcp.conn-95 rtt:vector ETV
attr interpolationmode sample-hold
attr recordingmode vector
1	23090825 52 2349058 2415841 64.8041358864 67.2416934216 2 0 1 1 1
2	23090877 158 1539546 2523857 42.5058230584 70.860611024 6 0 1 3 3
3	23091035 580 1504320 2867953 41.1033593016 80.1925950296 22 0 1 11 11
4	23091615 1487 1479871 2928957 40.277114922041 82.277114922041 52 31 37 1780 61094
5	23093102 1247 1479871 2928957 40.277114922041 82.277114922041 43 39 81 2580 161422
6	23094349 258 1516636 2926140 41.4516210512 82.1483047456 9 3198 4643 33554 126833184
7	23094607 258 1516636 2926140 41.4516210512 82.1483047456 9 1080 1080 9720 10497600
8	23094865 2086 1477960 2924663 40.2416934216 82.046677052 81 0 3 122 212
9	23096951 1084 1477960 2915257 40.2416934216 81.728531404 41 0 64 1468 72684
10	23098035 954 1466386 2928252 40 82.2416934216 41 136 5405 158486 657939774
11	23098989 951 1466386 2928252 40 82.2416934216 41 240 1080 42360 44769600
12	23099940 597555 1465979 2931044 39.9804505352 82.353880624 21205 47 847 999047 48988621
13	23697495 597547 1465981 2931046 39.9804510112 82.3538811 21205 47 847 999047 48988621
14	24295042 414517 2471576 2931049 68.896872744 82.3539811 14965 47 847 709331 35048293
16	24709559 359152 1468056 2929431 40.0425949408 82.308922792 12939 47 247 609933 29111451
17	25068711 359331 1468058 2929433 40.0425954168 82.308923268 12939 47 247 609933 29111451
18	25428042 414947 2471161 2930852 68.8699094808 82.349027028 14978 47 847 709942 35077010
19	25842989 597880 1467049 2930057 40.0179165312 82.3177244552 21216 47 847 999564 49012920
20	26440869 597983 1467051 2930059 40.0179166688 82.3177245928 21216 47 847 999564 49012920
21	27038852 640276 1467055 2930063 40.0179166688 82.3177245928 21213 47 1499 31782363 47639573805
22	27679128 640275 1467057 2930065 40.017917968 82.317725892 21213 47 1499 31782363 47639573805
23	28319403 496616 2436159 2930873 68.022287056 82.349269504 16709 47 1499 24048807 35967495793
24	28816019 360542 1466416 2930854 40.002361492 82.349027028 12984 47 247 612048 29210856
25	29176561 360195 1466418 2930856 40.0023616296 82.3490271656 12984 47 247 612048 29210856
26	29536756 385060 1466422 2930863 40.0023616296 82.3490283648 12943 47 1499 19381359 29048212115
27	29921816 385072 1466424 2930869 40.0023629288 82.349029664 12943 47 1499 19381359 29048212115
28	30306888 496182 2436835 2931035 68.0273756648 82.353868532 16694 47 1499 24026322 35933790778
29	30803070 639823 1465972 2931037 39.9804384432 82.353868532 21202 47 1499 31765874 47614856794
30	31442893 639851 1465974 2931039 39.9804505352 82.353880624 21202 47 1499 31765874 47614856794
31	32082744 88 1542353 2523723 42.586032516 70.7803943656 3 800 800 2400 1920000
32	32082832 384882 1468049 2929424 40.0425828488 82.3089107 12939 47 1499 19375363 29039224111
33	32467714 384994 1468051 2929426 40.0425949408 82.308922792 12939 47 1499 19375363 29039224111
34	32852708 6337 1467647 2921307 40.023285668 81.9131488608 223 47 127 15405 1256439
35	32859045 6334 1467649 2921309 40.023286464 81.9131493368 223 47 127 15405 1256439
37	32865379 639597 1465977 2931042 39.9804505352 82.353880624 21193 496 1452 30769368 44675699808
38	33504976 834160 1465977 2931042 39.9804505352 82.353880624 21193 0.0401371088 12.9769269176 141511.10306421 1225625.2752324
39	34339136 338 1518723 2927603 41.5317487576 82.228432452 9 0.0801277064 0.0803211496 0.7213428008 0.057815081736462
40	34339474 485337 1468054 2929429 40.0425949408 82.308922792 12930 0.0401371088 3.9875887048 23754.461397373 53679.40570839
41	34824811 6390 1466294 2922434 39.9832773648 81.9532530968 225 47 127 15539 1266217
42	34831201 6399 1466296 2922436 39.9832775344 81.9532532344 225 47 127 15539 1266217
43	34837600 6063 1466302 2919861 39.9832775344 81.8730938408 213 47 575 20831 5116381
44	34843663 6060 1466304 2919863 39.983277672 81.8730944008 213 47 575 20831 5116381
46	34849723 12823 1466420 2930839 40.0023616296 82.3489072456 341 0.0802105232 0.0813683456 27.3906317008 2.2001385613496
47	34862546 6059 1467641 2921300 40.023285192 81.9131441608 213 47 575 20831 5116381
48	34868605 6065 1467643 2921302 40.023285668 81.9131488608 213 47 575 20831 5116381
49	34874670 80 2398179 2465724 66.2416934216 68.728531404 3 0 1 1 1
50	34874750 371314 1466389 2930808 40 82.327229144 13366 47 247 636406 31936686
51	35246064 370788 1466391 2930810 40.000002076 82.32722962 13366 47 247 636406 31936686
52	35616852 369626 1467727 2929042 40.040121836 82.2818152576 13321 47 247 634291 31837281
53	35986478 369333 1467729 2929044 40.0401221336 82.2818155552 13321 47 247 634291 31837281
54	36355811 397072 1467735 2929318 40.0401221336 82.2818683576 13365 47 1499 19940749 29871348655
55	36752883 397095 1467827 2929323 40.0401222712 82.2818696568 13365 47 1499 19940749 29871348655
56	37149978 52241 1466147 2930818 39.981709152861 82.346763806469 1743 75 75 130725 9804375
57	37202219 52241 1466149 2930820 39.981709312861 82.346763966469 1743 75 75 130725 9804375
58	37254460 396868 1469563 2930793 40.0801272304 82.327217052 13365 47 1499 19940749 29871348655
59	37651328 398121 1469565 2930803 40.0801277064 82.327229144 13365 47 1499 19940749 29871348655
60	38049449 2349 1466386 2928252 40 82.2416934216 81 1.0802094576 3 213.1799701728 573.40286088975
61	38051798 294 1487629 2867136 40.4516210512 80.1483047456 9 1998750 2901875 21141250 50421412500000
62	38052092 51793 1466177 2930827 39.9818834832 82.346869966469 1743 75 75 130725 9804375
63	38103885 51793 1466179 2930829 39.9818841832 82.346870666469 1743 75 75 130725 9804375
64	38155678 66588 1466182 2930832 39.9818841832 82.346870666469 1743 0.060013201539 0.065530049562 104.83631910178 6.3058532100834
65	38222266 948 1469567 2313364 40.0801277064 64.080328764 25 0.0801277064 0.080328764 2.0035024048 0.16056092384097
66	38223214 501682 1469575 2930806 40.0802592424 82.327229144 13321 0.0401371088 0.9254200616 4297.5238408951 1897.5127337496
68	38724896 3432 1565123 2916651 43.2638024488 81.7728044872 121 40 40 4840 193600
70	38728328 2554 1467659 2921305 40.023292948 81.9131488608 90 40 528 10776 3628608
71	38730882 4697 1467659 2921305 40.023292948 81.9131488608 123 0.0400117232 0.0403724472 4.926932535646 0.19735612573709
73	38735579 1272 1498421 2924663 40.8053510776 82.046677052 40 17000 675625 19247250 9962776718750
74	38736851 1631 1498421 2924663 40.8053510776 82.046677052 40 1830.8733029455 5798.7224523015 208467.9681861 1106217257.4937
75	38738482 531 1510371 2899648 41.270705228171 81.306870666469 18 0 0.11111111111111 0.11111111111111 0.012345679012346
76	38739013 570 1510371 2899648 41.270705228171 81.306870666469 18 0.02 0.02 0.36 0.0072
77	38739583 516 1510371 2899648 41.270705228171 81.306870666469 18 0 0 0 0
78	38740099 765 1510371 2899648 41.270705228171 81.306870666469 18 2.2594020921405 4.3690260566731 76.532792251653 329.60704403842
79	38740864 516 1510371 2899648 41.270705228171 81.306870666469 18 0 0 0 0
80	38741380 464 1471545 2921305 40.1033593016 81.9131488608 12 0.0800367687 0.080223150744 0.960703529199 0.076912640686832
87	38741844 82 1518075 2502454 41.5058230584 69.700184908 3 5 5 15 75
88	38741926 122 1518075 2502454 41.5058230584 69.700184908 3 13.016954263554 13.0170064672 39.0509494016 508.32554972352
89	38742048 124 1518075 2502454 41.5058230584 69.700184908 3 6293305.6234105 6293330.8623022 18879950.713102 1.1881751297671e+14
106	38742172 77 1467645 1471537 40.023285668 40.1033090776 2 0.0800234096 0.0800265392 0.1600499488 0.012807993060339
108	38742249 39 1545181 1545181 42.6661176384 42.6661176384 1 0.0800851224 0.0800851224 0.0800851224 0.006413626829823
110	38742288 311 1569261 1597240 43.3439148176 43.9040965984 8 0.0800230192 0.0801123688 0.6402941496 0.051247081313874
112	38742599 311 1711420 1734468 47.1445811936 47.7047629744 8 0.0800230192 0.0801123688 0.6402941496 0.051247081313874
114	38742910 330 1868257 1886019 50.945396053154 51.506920406754 8 0.0802177648 0.080260852354 0.641785205954 0.051486032947147
116	38743240 328 2005223 2027097 54.747524921954 55.307706702754 8 0.0800230192 0.0801123688 0.6402941496 0.051247081313874
118	38743568 41 2051374 2051374 56.763281359554 56.763281359554 1 0.0800851224 0.0800851224 0.0800851224 0.006413626829823
120	38743609 321 2111590 2134201 58.548191297954 59.1089804608 8 0.0800230192 0.0802177648 0.640901531646 0.051344405485035
122	38743930 310 2241203 2261227 62.349584976 62.9097667568 8 0.0800230192 0.0801123688 0.6402941496 0.051247081313874
124	38744240 310 2395626 2406814 66.150251352 66.7104331328 8 0.0800230192 0.0801123688 0.6402941496 0.051247081313874
126	38744550 609 2418856 2930076 67.4019347216 82.321821128 16 0.0800318424 0.080221076 1.282040808 0.10272680749348
127	38745159 4767 2419580 2925355 67.4421706312 82.0867814256 123 0.0802139864 0.0804252848 9.8789095024 0.79343802366291
128	38749926 309 2507256 2521163 69.950917728 70.5110995088 8 0.0800230192 0.0801123688 0.6402941496 0.051247081313874
130	38750235 38 2523849 2523849 70.860479488 70.860479488 1 0.0800851224 0.0800851224 0.0800851224 0.006413626829823
131	38750273 5538 2523915 2929444 70.9006157736 82.3123481128 143 0.0801418584 0.0848055872 11.4918741976 0.92353866741305
132	38755811 310 2629050 2650265 73.751584104 74.3117658848 8 0.0800230192 0.0801123688 0.6402941496 0.051247081313874
134	38756121 309 2754070 2777978 77.55225048 78.1124322608 8 0.0800230192 0.0801123688 0.6402941496 0.051247081313874
136	38756430 310 2901695 2921296 81.352916856 81.9130986368 8 0.0800230192 0.0801123688 0.6402941496 0.051247081313874
137	38756740 310 2903086 2922438 81.3929354696 81.9532532344 8 0.0800230192 0.0801593936 0.6403408216 0.051254561597094
131	38757050 735 2932331 2997985 82.3926857976 83.838764124 19 0.0803376848 0.0803376848 1.5264160112 0.12262872838146
vector 138 baselineTestQoS.hostFDO[0].tcp.conn-98 rtt:vector ETV
attr interpolationmode sample-hold
attr recordingmode vector
vector 139 baselineTestQoS.serverFDO.tcp.conn-99 rtt:vector ETV
attr interpolationmode sample-hold
attr recordingmode vector
vector 140 baselineTestQoS.hostSSH[0].tcp.conn-96 rtt:vector ETV
attr interpolationmode sample-hold
attr recordingmode vector
vector 141 baselineTestQoS.serverSSH.tcp.conn-97 rtt:vector ETV
attr interpolationmode sample-hold
attr recordingmode vector
141	38758287 311 3035820 3058401 85.1936018456 85.7539196104 8 0.0800230192 0.0801593936 0.6403408216 0.051254561597094
vector 142 baselineTestQoS.hostSSH[0].tcp.conn-100 rtt:vector ETV
attr interpolationmode sample-hold
attr recordingmode vector
vector 143 baselineTestQoS.serverSSH.tcp.conn-101 rtt:vector ETV
attr interpolationmode sample-hold
attr recordingmode vector
143	38758851 311 3180335 3205897 88.9942682216 89.5545859864 8 0.0800230192 0.0801593936 0.6403408216 0.051254561597094
vector 144 baselineTestQoS.hostSSH[0].tcp.conn-102 rtt:vector ETV
attr interpolationmode sample-hold
attr recordingmode vector
vector 145 baselineTestQoS.serverSSH.tcp.conn-103 rtt:vector ETV
attr interpolationmode sample-hold
attr recordingmode vector
145	38759415 330 3330445 3352730 92.795129102305 93.356735110305 8 0.0801821232 0.0803307248 0.641919809505 0.051507649547465
vector 146 baselineTestQoS.hostSSH[0].tcp.conn-104 rtt:vector ETV
attr interpolationmode sample-hold
attr recordingmode vector
vector 147 baselineTestQoS.serverSSH.tcp.conn-105 rtt:vector ETV
attr interpolationmode sample-hold
attr recordingmode vector
139	38759998 6447 3032134 3537403 85.001019936 97.9382593512 162 0.0802436848 0.082811652095 13.017513564 1.0460290549223
147	38766445 328 3481979 3500999 96.597179961505 97.157497726305 8 0.0800230192 0.0801593936 0.6403408216 0.051254561597094
vector 148 baselineTestQoS.hostFDO[0].tcp.conn-106 rtt:vector ETV
attr interpolationmode sample-hold
attr recordingmode vector
vector 149 baselineTestQoS.serverFDO.tcp.conn-107 rtt:vector ETV
attr interpolationmode sample-hold
attr recordingmode vector
vector 150 baselineTestQoS.hostSSH[0].tcp.conn-108 rtt:vector ETV
attr interpolationmode sample-hold
attr recordingmode vector
vector 151 baselineTestQoS.serverSSH.tcp.conn-109 rtt:vector ETV
attr interpolationmode sample-hold
attr recordingmode vector
151	38767279 336 3602843 3620716 100.397997899105 100.959681916705 8 0.0802177648 0.0803307248 0.641954876 0.051513269579767
vector 152 baselineTestQoS.hostSSH[0].tcp.conn-110 rtt:vector ETV
attr interpolationmode sample-hold
attr recordingmode vector
vector 153 baselineTestQoS.serverSSH.tcp.conn-111 rtt:vector ETV
attr interpolationmode sample-hold
attr recordingmode vector
153	38767868 336 3741880 3766535 104.200126767905 104.760444532705 8 0.0800230192 0.0801593936 0.6403408216 0.051254561597094
vector 154 baselineTestQoS.hostSSH[0].tcp.conn-112 rtt:vector ETV
attr interpolationmode sample-hold
attr recordingmode vector
vector 155 baselineTestQoS.serverSSH.tcp.conn-113 rtt:vector ETV
attr interpolationmode sample-hold
attr recordingmode vector
23	38768457 1011617 2931608 3901622 82.3621583368 108.594804894951 32768 47 1499 47296976 70748771322
28	39780074 1011585 2931051 3902985 82.353988452 108.6264921112 32768 47 1499 47295552 70746529946
14	40791659 946664 2931065 3935086 82.35410102 109.3540868824 32768 47 847 1551212 76179960
18	41738323 946514 2931595 3936272 82.3620569 109.36589434 32768 47 847 1551212 76179960
155	42684837 336 3875718 3900222 108.000793143905 108.561110908705 8 0.0800230192 0.0801593936 0.6403408216 0.051254561597094
vector 156 baselineTestQoS.hostSSH[0].tcp.conn-114 rtt:vector ETV
attr interpolationmode sample-hold
attr recordingmode vector
vector 157 baselineTestQoS.serverSSH.tcp.conn-115 rtt:vector ETV
attr interpolationmode sample-hold
attr recordingmode vector
149	42685426 6634 3565880 4022636 99.108755254305 112.0490472192 162 0.080242103449 0.084835708895 13.020566113695 1.0465354307112
vector 158 baselineTestQoS.hostFDO[0].tcp.conn-116 rtt:vector ETV
attr interpolationmode sample-hold
attr recordingmode vector
vector 159 baselineTestQoS.serverFDO.tcp.conn-117 rtt:vector ETV
attr interpolationmode sample-hold
attr recordingmode vector
157	42692313 336 4018253 4024290 111.801603948551 112.362911530151 8 0.0800230568 0.0811364104 0.6413306384 0.051414199060503
vector 160 baselineTestQoS.hostSSH[0].tcp.conn-118 rtt:vector ETV
attr interpolationmode sample-hold
attr recordingmode vector
vector 161 baselineTestQoS.serverSSH.tcp.conn-119 rtt:vector ETV
attr interpolationmode sample-hold
attr recordingmode vector
161	42692902 319 4146109 4172731 115.603576076 116.1648915368 8 0.0800247248 0.0803307248 0.6415363776 0.051446169226612
vector 162 baselineTestQoS.hostSSH[0].tcp.conn-120 rtt:vector ETV
attr interpolationmode sample-hold
attr recordingmode vector
vector 163 baselineTestQoS.serverSSH.tcp.conn-121 rtt:vector ETV
attr interpolationmode sample-hold
attr recordingmode vector
163	42693474 318 4305546 4322781 119.405403692 119.9670817096 8 0.0802117648 0.0803307248 0.6419608584 0.051514230893235
2	42693792 162 3026441 4042708 84.8003545024 113.1763601136 6 0 1 3 3
3	42693954 604 2956082 4379334 82.9131488608 122.0071861208 22 0 1 11 11
4	42694558 1406 2970271 4384712 83.277114922041 122.277114922041 48 30 38 1632 55664
5	42695964 1205 2970271 4384712 83.277114922041 122.277114922041 40 82 121 4060 417420
6	42697169 240 3081612 4379317 86.6918835752 121.9926578592 8 2971 5022 31179 125169149
7	42697409 240 3081612 4379317 86.6918835752 121.9926578592 8 1080 1080 8640 9331200
8	42697649 2072 2947468 4378639 82.728531404 121.9654871 80 1 3 122 208
9	42699721 1062 2947468 4372379 82.728531404 121.728531404 40 14 53 1340 50220
10	42700783 1223 2969503 4383862 83.2416934216 122.2416934216 40 2516 5092 159320 647429330
11	42702006 1223 2969503 4383862 83.2416934216 122.2416934216 40 1080 1080 43200 46656000
12	42703229 585986 2931060 4397877 82.354000544 122.5802819184 20020 47 847 943352 46370956
13	43289215 585666 2931062 4397879 82.35400102 122.5802823944 20020 47 847 943352 46370956
14	43874881 436985 3935102 4397882 109.3542068024 122.5803823944 15149 47 847 717343 35327781
16	44311866 397101 2932270 4396677 82.389041756 122.5596268856 13765 47 247 648555 30877285
17	44708967 397054 2932272 4396679 82.389042232 122.5596273616 13765 47 247 648555 30877285
18	45106021 435104 3936286 4395941 109.36601426 122.5456222376 15085 47 847 714335 35186405
19	45541125 585074 2932327 4395943 82.39268566 122.5456222376 20001 47 847 942459 46328985
20	46126199 585305 2932329 4395945 82.3926857976 122.5456223752 20001 47 847 942459 46328985
21	46711504 625227 2932333 4395949 82.3926857976 122.5456223752 19998 47 1499 29961078 44909467590
22	47336731 625201 2932335 4395951 82.3926870968 122.5456236744 19998 47 1499 29961078 44909467590
23	47961932 516367 3901636 4395954 108.594924814951 122.5457236744 16707 47 1499 24202177 36210828155
24	48478299 395749 2933715 4394659 82.429145992 122.5179332776 13720 47 247 646440 30777880
25	48874048 395845 2933717 4394661 82.4291461296 122.5179334152 13720 47 247 646440 30777880
26	49269893 424713 2933722 4394665 82.4291461296 122.5179334152 13761 47 1499 20609669 30890280665
27	49694606 424868 2933725 4394667 82.4291474288 122.5179347144 13761 47 1499 20609669 30890280665
28	50119474 517174 3903001 4397884 108.6266120312 122.5803897464 16733 47 1499 24239727 36267008805
29	50636648 625775 2931053 4397886 82.353988452 122.5803897464 20018 47 1499 29991058 44954407610
30	51262423 625940 2931055 4397888 82.354000544 122.5804018384 20018 47 1499 29991058 44954407610
31	51888363 90 3029141 4041223 84.8806662376 113.0961434552 3 800 800 2400 1920000
32	51888453 424620 2932263 4396670 82.389029664 122.5596147936 13765 47 1499 20615665 30899268669
33	52313073 424605 2932265 4396672 82.389041756 122.5596268856 13765 47 1499 20615665 30899268669
34	52737678 6076 2956085 4380838 82.9131488608 122.0873955784 204 47 127 14032 1140548
35	52743754 6076 2956087 4380840 82.9131493368 122.0873960544 204 47 127 14032 1140548
37	52749830 625679 2931058 4397891 82.354000544 122.5804018384 20009 496 1452 29050200 42179467872
38	53375509 805797 2931058 4397875 82.354000544 122.5802819184 20008 0.0401371088 12.987452892095 129079.06118467 1094725.4307945
39	54181306 317 3084430 4380812 86.7720112816 122.0727855656 8 0.0800318424 0.080245634305 0.641043715105 0.051367153620498
40	54181623 536565 2932268 4396675 82.389041756 122.5596268856 13757 0.0401371088 4.3006373472 25954.418068447 62092.636676904
41	54718188 6068 2958015 4381624 82.9532530968 122.1274998144 204 47 127 14032 1140548
42	54724256 6081 2958017 4381626 82.9532532344 122.127499952 204 47 127 14032 1140548
43	54730337 5763 2958022 4380131 82.9532532344 122.0472908496 193 47 575 18395 4346809
44	54736100 5759 2958028 4380133 82.953253372 122.0472909904 193 47 575 18395 4346809
46	54741859 13578 2933719 4394152 82.4291461296 122.5142158952 350 0.080137452 0.084835708895 28.123161976895 2.2597877614244
47	54755437 5764 2959824 4380831 82.9932571696 122.0873950704 193 47 575 18395 4346809
48	54761201 5762 2959826 4380833 82.9932576456 122.0873955784 193 47 575 18395 4346809
50	54766963 396639 2932966 4397397 82.4022903488 122.5682421984 13928 47 247 662616 33118952
51	55163602 394868 2932968 4397399 82.4022908248 122.5682426744 13928 47 247 662616 33118952
52	55558470 394727 2931597 4395303 82.3620569 122.5280087496 13928 47 247 662616 33118952
53	55953197 397691 2931599 4395305 82.3620570376 122.5280088872 13928 47 247 662616 33118952
54	56350888 425243 2931603 4395309 82.3620570376 122.5280088872 13928 47 1499 20790386 31146532538
55	56776131 425424 2931605 4395311 82.3620583368 122.5280101864 13928 47 1499 20790386 31146532538
56	57201555 48701 2932157 4394131 82.366763806469 122.508651191139 1595 75 75 119625 8971875
57	57250256 48701 2932159 4394133 82.366763966469 122.508651351139 1595 75 75 119625 8971875
58	57298957 424271 2932959 4397390 82.4022782568 122.5682301064 13928 47 1499 20790386 31146532538
59	57723228 424319 2932961 4397392 82.4022903488 122.5682421984 13928 47 1499 20790386 31146532538
60	58147547 2605 2947468 4383862 82.728531404 122.2416934216 80 2.4868379824 3 219.473519296 607.37452602829
61	58150152 271 3057652 4295756 85.6918835752 118.9926578592 8 1856875 3138750 19816250 50429292187500
62	58150423 48329 2932178 4395958 82.366869966469 122.548757351139 1597 75 75 119775 8983125
63	58198752 48329 2932180 4395960 82.366870666469 122.548758051139 1597 75 75 119775 8983125
64	58247081 61941 2932183 4395963 82.366870666469 122.548758051139 1597 0.0600352936 0.064194802568 96.03187328419 5.7747361990524
66	58309022 533129 2932964 4397395 82.4022903488 122.5682421984 13888 0.0401371088 0.8472689904 4384.7830994471 1869.3127672605
68	58842151 3256 3033453 4318669 85.0734708632 119.7851091656 110 40 40 4400 176000
70	58845407 2386 3035037 4322057 85.153590512 119.927073576 80 40 528 9280 3043840
71	58847793 4361 3035037 4322057 85.153590512 119.927073576 110 0.0400117232 0.0411320048 4.414708861505 0.17718163167808
73	58852154 1290 2962569 4378639 83.0481177408 121.9654871 40 314500 636500 19939750 10143363968750
74	58853444 1647 2962569 4378639 83.0481177408 121.9654871 40 5081.4785110839 5711.7633948559 216649.48778767 1174118284.9135
75	58855091 439 3077829 4353915 86.584982420647 121.128758051139 15 0 0 0 0
76	58855530 484 3077829 4353915 86.584982420647 121.128758051139 15 0.02 0.02 0.3 0.006
77	58856014 439 3077829 4353915 86.584982420647 121.128758051139 15 0 0 0 0
78	58856453 648 3077829 4353915 86.584982420647 121.128758051139 15 4.368962052504 4.3690260566731 65.535288364622 286.32493474043
79	58857101 439 3077829 4353915 86.584982420647 121.128758051139 15 0 0 0 0
80	58857540 399 3057694 4322057 85.7138152368 119.927073576 10 0.0800367687 0.0802242833 0.801137991488 0.064182276856697
87	58857939 84 2996671 4022587 83.8003545024 112.0159339976 3 5 5 15 75
88	58858023 124 2996671 4022587 83.8003545024 112.0159339976 3 13.0199601368 13.027532441695 39.0749009032 508.94933114187
89	58858147 126 2996671 4022587 83.8003545024 112.0159339976 3 6288220.7637275 6291877.9427334 18868379.380419 1.186719222541e+14
126	58858273 1559 2972612 4385846 83.3220022656 122.321821128 40 0.080076710951 0.0803261904 3.205745170761 0.25692014669898
127	58859832 14538 2931601 4394691 82.3620570376 122.5227324072 368 0.0801452048 0.0805362064 29.558214903105 2.3741530127185
138	58874370 39 3031345 3031345 84.9608836504 84.9608836504 1 0.0802174128 0.0802174128 0.0802174128 0.0064348333163256
140	58874409 310 3035023 3057686 85.153583232 85.7137650128 8 0.0800230192 0.0801123688 0.6402941496 0.051247081313874
142	58874719 309 3178182 3203856 88.954249608 89.5144313888 8 0.0800230192 0.0801123688 0.6402941496 0.051247081313874
144	58875028 330 3328311 3350483 92.755110488705 93.316556832705 8 0.0801397552 0.080306873505 0.641753217505 0.051480913032713
146	58875358 328 3480557 3499587 96.557161347905 97.117343128705 8 0.0800230192 0.0801123688 0.6402941496 0.051247081313874
148	58875686 41 3565142 3565142 99.068618968705 99.068618968705 1 0.0802174128 0.0802174128 0.0802174128 0.0064348333163256
150	58875727 336 3601479 3619959 100.357979285505 100.919503639105 8 0.0802177648 0.0802639304 0.641788284 0.051486527049813
152	58876063 336 3740537 3765125 104.160108154305 104.720289935105 8 0.0800230192 0.0801123688 0.6402941496 0.051247081313874
154	58876399 336 3873636 3898092 107.960774530305 108.520956311105 8 0.0800230192 0.0801123688 0.6402941496 0.051247081313874
156	58876735 336 4016933 4023450 111.761585334951 112.322373492551 8 0.0800230192 0.0806297864 0.6409005264 0.051344497684774
158	58877071 40 4042700 4042700 113.1762285776 113.1762285776 1 0.0800851224 0.0800851224 0.0800851224 0.006413626829823
159	58877111 4647 4043486 4395330 113.2163648632 122.5365709272 117 0.0801418584 0.0819711168 9.4003479224 0.75527234076805
160	58881758 319 4143982 4171340 115.5635574624 116.1247369392 8 0.0800247248 0.0802177648 0.6413968896 0.051423780145079
162	58882077 318 4304153 4322022 119.3653850784 119.926903432 8 0.0802117648 0.0802759128 0.6417942664 0.051487488197252
vector 164 baselineTestQoS.hostSSH[0].tcp.conn-122 rtt:vector ETV
attr interpolationmode sample-hold
attr recordingmode vector
vector 165 baselineTestQoS.serverSSH.tcp.conn-123 rtt:vector ETV
attr interpolationmode sample-hold
attr recordingmode vector
165	58882648 317 4425198 4453342 123.2075265608 123.7687342296 8 0.0800230568 0.0803275248 0.6412307256 0.051397246052829
159	58882965 1789 4399392 4537396 122.616908612 126.1517667432 45 0.0803376848 0.0803376848 3.615195816 0.29043646195609
vector 166 baselineTestQoS.hostSSH[0].tcp.conn-124 rtt:vector ETV
attr interpolationmode sample-hold
attr recordingmode vector
vector 167 baselineTestQoS.serverSSH.tcp.conn-125 rtt:vector ETV
attr interpolationmode sample-hold
attr recordingmode vector
vector 168 baselineTestQoS.hostFDO[0].tcp.conn-126 rtt:vector ETV
attr interpolationmode sample-hold
attr recordingmode vector
vector 169 baselineTestQoS.serverFDO.tcp.conn-127 rtt:vector ETV
attr interpolationmode sample-hold
attr recordingmode vector
167	58885260 318 4544977 4552518 127.009202244 127.5695200088 8 0.0800230192 0.0801593936 0.6403408216 0.051254561597094
vector 170 baselineTestQoS.hostSSH[0].tcp.conn-128 rtt:vector ETV
attr interpolationmode sample-hold
attr recordingmode vector
vector 171 baselineTestQoS.serverSSH.tcp.conn-129 rtt:vector ETV
attr interpolationmode sample-hold
attr recordingmode vector
127	58885831 3103 4398761 4708119 122.603070092 131.088081108 78 0.080204672 0.0805280496 6.2654148136 0.50327480165223
171	58888934 317 4696007 4713576 130.80986862 131.3701863848 8 0.0800230192 0.0801593936 0.6403408216 0.051254561597094
vector 172 baselineTestQoS.hostLVD[0].tcp.conn-132 rtt:vector ETV
attr interpolationmode sample-hold
attr recordingmode vector
vector 173 baselineTestQoS.serverLVD.tcp.conn-133 rtt:vector ETV
attr interpolationmode sample-hold
attr recordingmode vector
vector 174 baselineTestQoS.hostSSH[0].tcp.conn-130 rtt:vector ETV
attr interpolationmode sample-hold
attr recordingmode vector
vector 175 baselineTestQoS.serverSSH.tcp.conn-131 rtt:vector ETV
attr interpolationmode sample-hold
attr recordingmode vector
175	58889757 316 4806296 4820255 134.610534996 135.1750209608 8 0.0800230568 0.082507204 0.6445090216 0.051929892663854
vector 176 baselineTestQoS.hostSSH[0].tcp.conn-134 rtt:vector ETV
attr interpolationmode sample-hold
attr recordingmode vector
vector 177 baselineTestQoS.serverSSH.tcp.conn-135 rtt:vector ETV
attr interpolationmode sample-hold
attr recordingmode vector
177	58890326 318 4911287 4934611 138.415369572 138.9756873368 8 0.0800230192 0.0801593936 0.6403408216 0.051254561597094
169	58890644 6534 4546027 4985449 127.3136879872 140.24895501717 162 0.0801418584 0.0818639176 13.01540888837 1.0456867980286
vector 178 baselineTestQoS.hostFDO[0].tcp.conn-138 rtt:vector ETV
attr interpolationmode sample-hold
attr recordingmode vector
vector 179 baselineTestQoS.serverFDO.tcp.conn-139 rtt:vector ETV
attr interpolationmode sample-hold
attr recordingmode vector
vector 180 baselineTestQoS.hostSSH[0].tcp.conn-136 rtt:vector ETV
attr interpolationmode sample-hold
attr recordingmode vector
vector 181 baselineTestQoS.serverSSH.tcp.conn-137 rtt:vector ETV
attr interpolationmode sample-hold
attr recordingmode vector
181	58897684 317 5016598 5033261 142.2161682072 142.7778522248 8 0.0802177648 0.0803307248 0.6419355736 0.051510171111916
vector 182 baselineTestQoS.hostSSH[0].tcp.conn-140 rtt:vector ETV
attr interpolationmode sample-hold
attr recordingmode vector
vector 183 baselineTestQoS.serverSSH.tcp.conn-141 rtt:vector ETV
attr interpolationmode sample-hold
attr recordingmode vector
183	58898254 318 5161209 5175228 146.018297076 146.5786148408 8 0.0800230192 0.0801593936 0.6403408216 0.051254561597094
vector 184 baselineTestQoS.hostSSH[0].tcp.conn-142 rtt:vector ETV
attr interpolationmode sample-hold
attr recordingmode vector
vector 185 baselineTestQoS.serverSSH.tcp.conn-143 rtt:vector ETV
attr interpolationmode sample-hold
attr recordingmode vector
23	58898825 1011564 4398137 5371019 122.5945560784 151.2528433032 32768 47 1499 47531052 71116688516
28	59910389 1011562 4397900 5372007 122.5805096664 151.2912843432 32768 47 1499 47532476 71118929892
185	60921951 317 5316834 5343237 149.819089424 150.380502392 8 0.0800670928 0.0803307248 0.6416582368 0.051465703042657
18	60922268 946609 4398124 5398006 122.5944546416 152.1750484216 32768 47 847 1551856 76307712
14	61868877 946612 4397898 5399958 122.5805023144 152.2170612264 32768 47 847 1551856 76307712
vector 186 baselineTestQoS.hostSSH[0].tcp.conn-144 rtt:vector ETV
attr interpolationmode sample-hold
attr recordingmode vector
vector 187 baselineTestQoS.serverSSH.tcp.conn-145 rtt:vector ETV
attr interpolationmode sample-hold
attr recordingmode vector
179	62815742 6435 4999062 5495892 141.4107148192 154.3447656488 162 0.0801418584 0.0807032656 13.014192688 1.0454891956254
187	62822177 318 5464180 5490835 153.6209472432 154.181265008 8 0.0800230192 0.0801593936 0.6403408216 0.051254561597094
vector 188 baselineTestQoS.hostFDO[0].tcp.conn-146 rtt:vector ETV
attr interpolationmode sample-hold
attr recordingmode vector
vector 189 baselineTestQoS.serverFDO.tcp.conn-147 rtt:vector ETV
attr interpolationmode sample-hold
attr recordingmode vector
vector 190 baselineTestQoS.hostSSH[0].tcp.conn-148 rtt:vector ETV
attr interpolationmode sample-hold
attr recordingmode vector
vector 191 baselineTestQoS.serverSSH.tcp.conn-149 rtt:vector ETV
attr interpolationmode sample-hold
attr recordingmode vector
191	62823001 316 5568446 5590282 157.4216136192 157.981931384 8 0.0800230192 0.0801593936 0.6403408216 0.051254561597094
vector 192 baselineTestQoS.hostSSH[0].tcp.conn-150 rtt:vector ETV
attr interpolationmode sample-hold
attr recordingmode vector
vector 193 baselineTestQoS.serverSSH.tcp.conn-151 rtt:vector ETV
attr interpolationmode sample-hold
attr recordingmode vector
193	62823570 322 5718058 5728843 161.2222799952 161.78292650814 8 0.0800198512 0.08026037214 0.64066956974 0.051307269155765
1	62823892 53 4706814 4775417 131.0480763584 133.728531404 2 0 1 1 1
2	62823945 163 4545124 5517867 127.1132571216 155.4666821432 6 0 1 3 3
3	62824108 586 4495282 5811456 124.728726096 163.8231546088 22 0 1 11 11
4	62824694 1481 4427231 5835435 123.277114922041 164.277114922041 50 31 37 1703 58161
5	62826175 1302 4427231 5835435 123.277114922041 164.277114922041 42 122 163 5985 859033
6	62827477 237 4545181 5734343 127.13433028 161.9397556592 8 2706 4909 30540 120417112
7	62827714 237 4545181 5734343 127.13433028 161.9397556592 8 1080 1080 8640 9331200
8	62827951 2139 4405446 5846267 122.728531404 164.5319620632 81 0 3 126 228
9	62830090 1097 4405446 5827475 122.728531404 164.132181416 41 0 64 1084 46956
10	62831187 1208 4426460 5853202 123.2416934216 164.728531404 40 130 5676 142985 568932979
11	62832395 1203 4426460 5853202 123.2416934216 164.728531404 40 240 1080 40560 42307200
12	62833598 617246 4397893 5860384 122.5804018384 164.87616563374 21186 47 847 998154 48946650
13	63450844 617287 4397895 5860386 122.5804023144 164.87616610974 21186 47 847 998154 48946650
14	64068131 437567 5399974 5862269 152.2171811464 164.9152828256 15060 47 847 713000 35077740
16	64505698 409886 4400027 5862280 122.6346880904 164.9153022696 14257 47 247 671679 31964113
17	64915584 409981 4400029 5862282 122.6346885664 164.9153027456 14257 47 247 671679 31964113
18	65325565 438665 5398020 5861792 152.1751683416 164.9118121848 15098 47 847 714746 35156322
19	65764230 618002 4399388 5861794 122.6169084744 164.9118121848 21211 47 847 999329 49001875
20	66382232 617801 4399390 5861796 122.616908612 164.9118123224 21211 47 847 999329 49001875
21	67000033 660026 4399394 5861800 122.616908612 164.9118123224 21208 47 1499 31774868 47628338800
22	67660059 660085 4399396 5861805 122.6169099112 164.9118136216 21208 47 1499 31774868 47628338800
23	68320144 515193 5371020 5861819 151.2528493032 164.9119136216 16620 47 1499 23895963 35738562641
24	68835337 410359 4398126 5860436 122.5944546416 164.8766277808 14270 47 247 672290 31992830
25	69245696 410280 4398128 5860438 122.5944547792 164.8766279184 14270 47 247 672290 31992830
26	69655976 438786 4398132 5860442 122.5944547792 164.8766279184 14270 47 1499 21373390 32035110894
27	70094762 438909 4398134 5860444 122.5944560784 164.8766292176 14270 47 1499 21373390 32035110894
28	70533671 513923 5372023 5862271 151.2914042632 164.9152901776 16579 47 1499 23835928 35648676976
29	71047594 659461 4397902 5860377 122.5805096664 164.87615354174 21182 47 1499 31735894 47569916774
30	71707055 659469 4397904 5860379 122.5805217584 164.87616563374 21182 47 1499 31735894 47569916774
31	72366524 90 4545325 5517675 127.1934665792 155.3864654848 3 800 800 2400 1920000
32	72366614 438538 4400020 5862273 122.6346759984 164.9152901776 14257 47 1499 21353903 32005899881
33	72805152 438372 4400022 5862275 122.6346880904 164.9153022696 14257 47 1499 21353903 32005899881
34	73243524 6400 4421059 5861190 123.0873955784 164.9034450272 221 47 127 15311 1252021
35	73249924 6407 4421061 5861192 123.0873963744 164.9034458232 221 47 127 15311 1252021
37	73256331 659208 4397907 5860382 122.5805217584 164.87616563374 21173 496 1452 30740328 44633533728
38	73915539 836481 4397891 5860382 122.5804018384 164.87616563374 21174 0.0401371088 12.9770341168 141229.79379776 1221926.8751258
39	74752020 311 4545393 5737155 127.2144579864 162.0198833656 8 0.0801277064 0.0801277064 0.6410216512 0.051363594663397
[...]
48	75346308 6063 4423798 5815595 123.1675079472 163.9034450272 209 47 575 20075 4773769
49	75352371 81 4740699 4819461 132.728531404 135.132181416 3 0 1 1 1
50	75352452 350168 4400747 5861180 122.6433034032 164.8944108112 12165 47 247 579759 29224877
51	75702620 350540 4400749 5861182 122.6433038792 164.8944112872 12165 47 247 579759 29224877
52	76053160 350536 4398757 5859066 122.6030699544 164.8541713624 12165 47 247 579759 29224877
53	76403696 349565 4398759 5859068 122.603070092 164.8541715 12165 47 247 579759 29224877
54	76753261 373489 4398763 5859072 122.603070092 164.8541715 12164 47 1499 18143407 27178382069
55	77126750 374778 4398765 5859074 122.6030713912 164.8541727992 12164 47 1499 18143407 27178382069
56	77501528 47029 4430427 5861535 123.328134690528 164.90989767774 1537 75 75 115275 8645625
57	77548557 47029 4430429 5861537 123.328134850528 164.90989783774 1537 75 75 115275 8645625
58	77595586 374951 4400740 5861173 122.6432913112 164.8943987192 12164 47 1499 18143407 27178382069
59	77970537 374345 4400742 5861175 122.6433034032 164.8944108112 12164 47 1499 18143407 27178382069
60	78344882 2590 4405446 5853202 122.728531404 164.728531404 80 1.0802094576 3 214.0580896416 582.33648538499
61	78347472 269 4511111 5680246 125.13433028 159.9397556592 8 1691250 3068125 18742500 45424628125000
62	78347741 46473 4432471 5861543 123.368240850528 164.91000383774 1535 75 75 115125 8634375
63	78394214 46473 4432473 5861545 123.368241550528 164.91000453774 1535 75 75 115125 8634375
64	78440687 59816 4432476 5861548 123.368241550528 164.91000453774 1535 0.06001839586 0.06560626066 92.355678269829 5.5570047204305
66	78500503 468378 4400745 5861178 122.6433034032 164.8944108112 12121 0.0401371088 0.8470932256 3719.9824077486 1577.3028796703
68	78968881 3538 4421056 5861187 123.0873955784 164.9034450272 122 40 40 4880 195200
70	78972419 2550 4423814 5727832 123.1675152272 161.74291837454 88 40 528 10208 3348224
71	78974969 4693 4423814 5727832 123.1675152272 161.74291837454 121 0.0400117232 0.0425094704 4.85872100174 0.19511707832194
73	78979662 1312 4419688 5846267 123.04606724 164.5319620632 40 16250 634250 17702375 8676439109375
74	78980974 1666 4419688 5846267 123.04606724 164.5319620632 40 1898.9226255246 5598.8124108181 202917.6197962 1052307480.8716
75	78982640 447 4432476 5518072 123.368241550528 155.652790308083 15 0 0 0 0
76	78983087 492 4432476 5518072 123.368241550528 155.652790308083 15 0.02 0.02 0.3 0.006
77	78983579 447 4432476 5518072 123.368241550528 155.652790308083 15 0 0 0 0
78	78984026 657 4432476 5518072 123.368241550528 155.652790308083 15 4.3690260566731 4.3690690801354 65.535433873559 286.32620620144
79	78984683 447 4432476 5518072 123.368241550528 155.652790308083 15 0 0 0 0
80	78985130 431 4451308 5727832 123.728726096 161.74291837454 11 0.0800367687 0.0805431549 0.881406284317 0.070625421399684
87	78985561 85 4537379 5495113 126.1132571216 154.3062560272 3 5 5 15 75
88	78985646 121 4537379 5495113 126.1132571216 154.3062560272 3 13.015762616 13.0171136664 39.04985509877 508.29706218587
89	78985767 127 4537379 5495113 126.1132571216 154.3062560272 3 6293253.7964582 6293907.0430877 18880479.831275 1.1882417314533e+14
126	78985894 314 4429560 4670618 123.321821128 130.321821128 8 0.0801277064 0.0803180336 0.6413206656 0.051411561376852
164	78986208 319 4423800 4451273 123.1675079472 123.728555952 8 0.0800230192 0.0803129008 0.6411603736 0.051385917146698
166	78986527 318 4544930 4551315 126.9691836304 127.5293654112 8 0.0800230192 0.0801123688 0.6402941496 0.051247081313874
168	78986845 40 4545567 4545567 127.2735517016 127.2735517016 1 0.0800851224 0.0800851224 0.0800851224 0.006413626829823
170	78986885 319 4693948 4712886 130.7698500064 131.3300317872 8 0.0800230192 0.0801123688 0.6402941496 0.051247081313874
172	78987204 1283 4781049 5856323 133.888772704 164.8086591104 32 0.0800318424 0.0803237656 2.56472466691 0.20555675054593
173	78988487 10196 4782460 5858437 133.9290086136 164.84889502 257 0.0801222048 0.0805337816 20.64135967877 1.6578438897748
174	78998683 318 4805031 4819477 134.5705163824 135.1347492528 8 0.0800230192 0.082397444 0.6443452392 0.051903097697246
176	78999001 319 4909926 4932576 138.3753509584 138.9355327392 8 0.0800230192 0.0801123688 0.6402941496 0.051247081313874
178	78999320 40 4998484 4998484 141.3705785336 141.3705785336 1 0.0800851224 0.0800851224 0.0800851224 0.006413626829823
180	78999360 318 5015127 5031686 142.1761495936 142.7376739472 8 0.0802177648 0.080244628 0.6417689816 0.051483428849415
182	78999678 319 5159865 5174515 145.9782784624 146.5384602432 8 0.0800230192 0.0801123688 0.6402941496 0.051247081313874
184	78999997 318 5314641 5341749 149.7790708104 150.3403241144 8 0.0800247248 0.0802383408 0.6414916448 0.051438977224709
186	79000315 317 5462658 5488971 153.5809286296 154.1411104104 8 0.0800230192 0.0801123688 0.6402941496 0.051247081313874
188	79000632 40 5517859 5517859 155.4665506072 155.4665506072 1 0.0800851224 0.0800851224 0.0800851224 0.006413626829823
189	79000672 4772 5517896 5861203 155.5066868928 164.9071294424 118 0.0801418584 0.08187599986 9.480584408 0.76170992257132
190	79005444 319 5567145 5588152 157.3815950056 157.9417767864 8 0.0800230192 0.0801123688 0.6402941496 0.051247081313874
192	79005763 322 5717231 5727813 161.1822613816 161.74286815054 8 0.0800230192 0.08025717214 0.64071913774 0.051315191722953
vector 194 baselineTestQoS.hostSSH[0].tcp.conn-152 rtt:vector ETV
attr interpolationmode sample-hold
attr recordingmode vector
vector 195 baselineTestQoS.serverSSH.tcp.conn-153 rtt:vector ETV
attr interpolationmode sample-hold
attr recordingmode vector
195	79006338 317 5867416 5894333 165.0235760096 165.5838937744 8 0.0800230192 0.0801593936 0.6403408216 0.051254561597094
189	79006655 1789 5865382 6000846 164.9874671272 168.44657674414 44 0.0802574448 0.082157604 3.53944730174 0.28472604319501
vector 196 baselineTestQoS.hostSSH[0].tcp.conn-154 rtt:vector ETV
attr interpolationmode sample-hold
attr recordingmode vector
vector 197 baselineTestQoS.serverSSH.tcp.conn-155 rtt:vector ETV
attr interpolationmode sample-hold
attr recordingmode vector
vector 198 baselineTestQoS.hostFDO[0].tcp.conn-156 rtt:vector ETV
attr interpolationmode sample-hold
attr recordingmode vector
vector 199 baselineTestQoS.serverFDO.tcp.conn-157 rtt:vector ETV
attr interpolationmode sample-hold
attr recordingmode vector
197	79008950 319 6008592 6026703 168.8242423856 169.3845601504 8 0.0800230192 0.0801593936 0.6403408216 0.051254561597094
vector 200 baselineTestQoS.hostSSH[0].tcp.conn-158 rtt:vector ETV
attr interpolationmode sample-hold
attr recordingmode vector
vector 201 baselineTestQoS.serverSSH.tcp.conn-159 rtt:vector ETV
attr interpolationmode sample-hold
attr recordingmode vector
201	79009522 319 6117227 6144147 172.6249995056 173.1853172704 8 0.0800230192 0.0801593936 0.6403408216 0.051254561597094
vector 202 baselineTestQoS.hostSSH[0].tcp.conn-160 rtt:vector ETV
attr interpolationmode sample-hold
attr recordingmode vector
vector 203 baselineTestQoS.serverSSH.tcp.conn-161 rtt:vector ETV
attr interpolationmode sample-hold
attr recordingmode vector
203	79010094 332 6268882 6284752 176.425736085044 176.987089953844 8 0.0800230568 0.080281252 0.6413769256 0.051420631178974
vector 204 baselineTestQoS.hostSSH[0].tcp.conn-162 rtt:vector ETV
attr interpolationmode sample-hold
attr recordingmode vector
vector 205 baselineTestQoS.serverSSH.tcp.conn-163 rtt:vector ETV
attr interpolationmode sample-hold
attr recordingmode vector
205	79010679 336 6421838 6435075 180.227534805044 180.787852569844 8 0.0800230192 0.0801593936 0.6403408216 0.051254561597094
199	79011015 6441 6030479 6489543 169.60849798814 182.5498249208 162 0.0801418584 0.08531566386 13.02146879106 1.0466876352742
vector 206 baselineTestQoS.hostFDO[0].tcp.conn-166 rtt:vector ETV
attr interpolationmode sample-hold
attr recordingmode vector
vector 207 baselineTestQoS.serverFDO.tcp.conn-167 rtt:vector ETV
attr interpolationmode sample-hold
attr recordingmode vector
vector 208 baselineTestQoS.hostSSH[0].tcp.conn-164 rtt:vector ETV
attr interpolationmode sample-hold
attr recordingmode vector
vector 209 baselineTestQoS.serverSSH.tcp.conn-165 rtt:vector ETV
attr interpolationmode sample-hold
attr recordingmode vector
209	79017962 336 6530323 6558296 184.028201181044 184.588518945844 8 0.0800230192 0.0801593936 0.6403408216 0.051254561597094
vector 210 baselineTestQoS.hostSSH[0].tcp.conn-168 rtt:vector ETV
attr interpolationmode sample-hold
attr recordingmode vector
vector 211 baselineTestQoS.serverSSH.tcp.conn-169 rtt:vector ETV
attr interpolationmode sample-hold
attr recordingmode vector
211	79018551 336 6675808 6703844 187.828867557044 188.389185321844 8 0.0800230192 0.0801593936 0.6403408216 0.051254561597094
vector 212 baselineTestQoS.hostSSH[0].tcp.conn-170 rtt:vector ETV
attr interpolationmode sample-hold
attr recordingmode vector
vector 213 baselineTestQoS.serverSSH.tcp.conn-171 rtt:vector ETV
attr interpolationmode sample-hold
attr recordingmode vector
28	79019140 1030967 5862287 6835889 164.9154100976 192.1354057736 32768 47 1499 47611574 71244458776
23	80050107 1030940 5862367 6836661 164.91589162654 192.1707068184 32768 47 1499 47606350 71235814856
14	81081047 966514 5862285 6862260 164.9154027456 192.9122349672 32768 47 847 1552012 76360760
18	82047561 966362 5862349 6863084 164.91579018974 192.927814160244 32768 47 847 1552052 76366120
213	83013923 336 6820246 6837467 191.629533933044 192.189851697844 8 0.0800230192 0.0801593936 0.6403408216 0.051254561597094
vector 214 baselineTestQoS.hostSSH[0].tcp.conn-172 rtt:vector ETV
attr interpolationmode sample-hold
attr recordingmode vector
vector 215 baselineTestQoS.serverSSH.tcp.conn-173 rtt:vector ETV
attr interpolationmode sample-hold
attr recordingmode vector
207	83014512 6514 6519615 7007491 183.7117461648 196.6470528456 162 0.0801418584 0.081954354447 13.0154485392 1.045693460257
215	83021026 336 6978905 6993819 195.430200309044 195.990518073844 8 0.0800230192 0.0801593936 0.6403408216 0.051254561597094
173	83021362 12002 5862572 7028568 164.9292327048 197.5758459496 301 0.0801721712 0.08051886 24.176754776022 1.9419123996477
vector 216 baselineTestQoS.hostFDO[0].tcp.conn-174 rtt:vector ETV
attr interpolationmode sample-hold
attr recordingmode vector
vector 217 baselineTestQoS.serverFDO.tcp.conn-175 rtt:vector ETV
attr interpolationmode sample-hold
attr recordingmode vector
vector 218 baselineTestQoS.hostSSH[0].tcp.conn-176 rtt:vector ETV
attr interpolationmode sample-hold
attr recordingmode vector
vector 219 baselineTestQoS.serverSSH.tcp.conn-177 rtt:vector ETV
attr interpolationmode sample-hold
attr recordingmode vector
1	83033870 24 7027915 7027915 197.5358412 197.5358412 1 0 0 0 0
2	83033894 161 6027039 7032140 169.40806712254 197.76896934 6 0 1 3 3
3	83034055 510 5921135 7037234 166.5437894008 198.030526245044 18 0 1 9 9
4	83034565 1281 5881129 7101143 165.277114922041 199.9953731216 43 31 37 1462 49850
5	83035846 1085 5881129 7077843 165.277114922041 199.277114922041 35 164 198 6335 1150205
6	83036931 217 5921163 7007475 166.55406768 196.6181266424 7 3710 4504 27308 106992788
7	83037148 217 5921163 7007475 166.55406768 196.6181266424 7 1080 1080 7560 8164800
8	83037365 1824 5873277 7072323 165.132181416 199.132181416 69 0 2 100 166
9	83039189 971 5873277 7072323 165.132181416 199.132181416 36 0 64 1645 80885
10	83040160 960 5898070 7007637 165.728531404 196.728531404 32 2730 5381 125878 503926936
11	83041120 960 5898070 7007637 165.728531404 196.728531404 32 1080 1080 34560 37324800
12	83042080 498563 5863246 7100259 164.9473627536 199.9426708808 17121 47 847 807099 39967065
13	83540643 498636 5863248 7100261 164.9473632296 199.9426713568 17121 47 847 807099 39967065
14	84039279 230505 6862276 7101151 192.9123548872 199.9954735976 7886 47 847 373334 18567670
16	84269784 365130 5862296 7101146 164.9154221896 199.9953731216 12050 47 247 567750 27030050
17	84634914 365202 5862298 7101148 164.9154226656 199.9953735976 12050 47 247 567750 27030050
18	85000116 233007 6863098 7101121 192.927934080244 199.9827751168 7967 47 847 377141 18746599
19	85233123 498782 5862351 7101123 164.91579018974 199.9827751168 17126 47 847 807334 39978110
20	85731905 498755 5862353 7101125 164.91579032734 199.9827752544 17126 47 847 807334 39978110
21	86230660 532801 5862357 7101129 164.91579032734 199.9827752544 17123 47 1499 25651453 38449339715
22	86763461 532815 5862359 7101131 164.91579162654 199.9827765536 17123 47 1499 25651453 38449339715
23	87296276 276054 6836675 7101134 192.1708267384 199.9828765536 8834 47 1499 13006715 19476563937
24	87572330 366097 5863831 7100492 164.9515889856 199.955242148 12081 47 247 569207 27098529
25	87938427 365948 5863833 7100494 164.9515891232 199.9552422856 12081 47 247 569207 27098529
26	88304375 388832 5863837 7100498 164.9515891232 199.9552422856 12037 47 1499 18026848 27018924224
27	88693207 388954 5863839 7100500 164.9515904224 199.9552426616 12037 47 1499 18026848 27018924224
28	89082161 276335 6835914 7101136 192.146060260335 199.9953702616 8844 47 1499 13013633 19485907275
29	89358496 532830 5863239 7100252 164.9473506616 199.9426587888 17118 47 1499 25643958 38438104710
30	89891326 532687 5863241 7100254 164.9473627536 199.9426708808 17118 47 1499 25643958 38438104710
31	90424013 91 6028416 7030727 169.48827658014 197.6887526816 3 800 800 2400 1920000
32	90424104 389294 5862289 7101138 164.9154100976 199.9953702616 12050 47 1499 18046335 27048135237
33	90813398 389207 5862291 7101140 164.9154221896 199.9953731216 12050 47 1499 18046335 27048135237
34	91202605 5915 5865355 7093972 164.983557396 199.7527061104 195 47 127 13561 1114523
35	91208520 5908 5865357 7093974 164.983558192 199.7527065864 195 47 127 13561 1114523
37	91214428 532425 5863244 7100257 164.9473627536 199.9426708808 17109 496 1452 24839400 36065386272
38	91746853 685250 5863244 7100257 164.9473627536 199.9426708808 17109 0.0401371088 12.98295916946 117361.87893191 1064043.7228355
39	92432103 284 5922669 7007620 166.63410817374 196.6982543488 7 0.08004049374 0.0801277064 0.56080673214 0.044929176635691
40	92432387 486960 5862294 7101143 164.9154221896 199.9953731216 12043 0.0401371088 3.904589248 22973.789844102 53464.956841143
41	92919347 5939 5863216 7095383 164.9435527832 199.7927141064 196 47 127 13648 1122092
42	92925286 5947 5863218 7095385 164.9435529528 199.792714244 196 47 127 13648 1122092
43	92931233 5682 5863224 7092652 164.9435529528 199.7124541112 187 47 575 18105 4332771
44	92936915 5678 5863229 7092654 164.9435530904 199.7124546712 187 47 575 18105 4332771
46	92942593 12523 5863835 7100272 164.9515891232 199.9514048456 312 0.0801484424 0.08170517186 25.061517203059 2.0130782673995
47	92955116 5677 5865349 7093965 164.98355692 199.7527014104 187 47 575 18105 4332771
48	92960793 5679 5865351 7093967 164.983557396 199.7527061104 187 47 575 18105 4332771
49	92966472 27 7072323 7072323 199.132181416 199.132181416 1 0 0 0 0
50	92966499 326538 5864618 7029338 164.969466016 197.6158578808 11287 47 247 536889 26814583
51	93293037 327254 5864620 7029340 164.969466492 197.6158583568 11287 47 247 536889 26814583
52	93620291 328551 5862568 7029993 164.9292325672 197.6559621168 11332 47 247 539004 26913988
53	93948842 326616 5862570 7029995 164.9292327048 197.6559622544 11332 47 247 539004 26913988
54	94275458 347299 5862574 7028582 164.9292327048 197.5758497472 11287 47 1499 16844059 25234337083
55	94622757 349238 5862576 7028587 164.929234004 197.5758498848 11287 47 1499 16844059 25234337083
56	94971995 29768 5862652 7041814 164.92989767774 198.213884655219 968 75 75 72600 5445000
57	95001763 29768 5862654 7041816 164.92989783774 198.213884815219 968 75 75 72600 5445000
58	95031531 349827 5864611 7029331 164.969453924 197.6158574048 11287 47 1499 16844059 25234337083
59	95381358 349025 5864613 7029333 164.969466016 197.6158578808 11287 47 1499 16844059 25234337083
60	95730383 2122 5873277 7039372 165.132181416 198.132181416 66 2.403650012 3 177.724100408 484.43613492638
61	95732505 279 5893587 7101143 165.55406768 199.9953731216 8 2318750 2815000 19578125 48097295703125
62	95732784 29673 5862673 7043277 164.93000383774 198.255453488 970 75 75 72750 5456250
63	95762457 29673 5862675 7043279 164.93000453774 198.255454188 970 75 75 72750 5456250
64	95792130 37880 5862678 7043282 164.93000453774 198.255454188 970 0.06001839586 0.064548415103 58.331736975817 3.5078913970963
66	95830010 438662 5864616 7027915 164.969466016 197.5358412 11253 0.0401371088 0.9282477952 3591.4803054065 1547.6887953463
68	96268672 3315 5864105 7088897 164.9534450272 199.610735702644 109 40 40 4360 174400
70	96271987 2419 5865367 7093970 164.983564676 199.7527061104 80 40 528 9280 3043840
71	96274406 4404 5865367 7093970 164.983564676 199.7527061104 110 0.0400117232 0.0404936728 4.407982647756 0.17664076620545
73	96278810 1086 5897410 7027915 165.6969013328 197.5358412 33 341250 709500 16444250 8377248625000
74	96279896 1377 5897410 7027915 165.6969013328 197.5358412 33 5094.3286580292 5696.1617758495 177831.44058094 959241546.89924
75	96281273 508 5985822 7077844 168.114521472589 199.293991515219 17 0 0 0 0
76	96281781 559 5985822 7077844 168.114521472589 199.293991515219 17 0.02 0.02 0.34 0.0068
77	96282340 508 5985822 7077844 168.114521472589 199.293991515219 17 0 0 0 0
78	96282848 745 5985822 7077844 168.114521472589 199.293991515219 17 4.368981005403 4.3690260566731 74.27338449196 324.50209670141
79	96283593 508 5985822 7077844 168.114521472589 199.293991515219 17 0 0 0 0
80	96284101 404 5893052 7093970 165.5437894008 199.7527061104 10 0.0800367687 0.080225032969 0.800655109869 0.064104897510606
87	96284505 84 6000100 7007465 168.40806712254 196.608543224 3 5 5 15 75
88	96284589 122 6000100 7007465 168.40806712254 196.608543224 3 13.0170184672 13.02303871906 39.061658824 508.60441646555
89	96284711 126 6000100 7007465 168.40806712254 196.608543224 3 6290390.5737534 6293299.8218002 18874775.185198 1.1875238404794e+14
172	96284837 1290 5899847 7008037 165.8086591104 196.8086591104 32 0.0801277064 0.080308844 2.564676704441 0.20554903404013
194	96286127 318 5865353 5893044 164.983557396 165.5437391768 8 0.0800230192 0.0801123688 0.6402941496 0.051247081313874
196	96286445 318 6007063 6025943 168.784223772 169.3444055528 8 0.0800230192 0.0801123688 0.6402941496 0.051247081313874
198	96286763 41 6029793 6029793 169.56836170254 169.56836170254 1 0.0800851224 0.0800851224 0.0800851224 0.006413626829823
200	96286804 318 6115976 6142197 172.584980892 173.1451626728 8 0.0800230192 0.0801123688 0.6402941496 0.051247081313874
202	96287122 336 6268073 6282705 176.385717471444 176.946692521044 8 0.0800230192 0.0802158512 0.6410874184 0.05137418907901
204	96287458 336 6420441 6434055 180.187516191444 180.747697972244 8 0.0800230192 0.0801123688 0.6402941496 0.051247081313874
206	96287794 40 6518865 6518865 183.6716098792 183.6716098792 1 0.0800851224 0.0800851224 0.0800851224 0.006413626829823
208	96287834 336 6528670 6556426 183.988182567444 184.548364348244 8 0.0800230192 0.0801123688 0.6402941496 0.051247081313874
210	96288170 336 6673736 6702507 187.788848943444 188.349030724244 8 0.0800230192 0.0801123688 0.6402941496 0.051247081313874
212	96288506 336 6819501 6836111 191.589515319444 192.149697100244 8 0.0800230192 0.0801123688 0.6402941496 0.051247081313874
214	96288842 336 6977373 6992356 195.390181695444 195.950363476244 8 0.0800230192 0.0801123688 0.6402941496 0.051247081313874
216	96289178 39 7032132 7032132 197.768837804 197.768837804 1 0.0800851224 0.0800851224 0.0800851224 0.006413626829823
217	96289217 1109 7032793 7100511 197.8089740896 199.9774987744 28 0.0801418584 0.0803376848 2.2486665432 0.18058940408071
218	96290326 321 7074708 7093935 199.1910116128 199.7525359664 8 0.0802177648 0.080275910156 0.641800263756 0.051488450277931
219	96290647 320 7076143 7095387 199.2310302264 199.792714244 8 0.0802177648 0.0803307248 0.641966855756 0.051515192973877

