file 5549942 1712580961                                         
version 3
run testingConfigurator5slices-0-20240408-14:54:13-23197
attr configname testingConfigurator5slices
attr datetime 20240408-14:54:13
attr datetimef 20240408-145413
attr experiment testingConfigurator5slices
attr inifile DynamicStudyConfig.ini
attr iterationvars ""
attr iterationvarsd ""
attr iterationvarsf ""
attr measurement ""
attr network baselineTestQoS
attr processid 23197
attr repetition 0
attr replication #0
attr resultdir results
attr runnumber 0
attr seedset 0
config description "Configuration for testingConfigurator5slices. All five applications. QoS employed. Guarantee Multiplier: 1; Ceil multiplier: 2"
config extends liteCbaselineTestTokenQoS_base
config *.configurator.config "xmldoc(\"configs/routing/testingConfigurator5slicesRouting.xml\")"
config *.nVID 33
config *.nLVD 130
config *.nFDO 84
config *.nSSH 201
config *.nVIP 100
config *.ncVIP 0
config **.hostSSH[*].app[0].startTime 0s
config **.hostSSH[*].app[0].stopTime 8s
config **.hostSSH[*].app[1].startTime 0s
config **.hostSSH[*].app[1].stopTime 7s
config **.hostSSH[*].app[2].startTime 0s
config **.hostSSH[*].app[2].stopTime 10s
config **.hostSSH[*].app[3].startTime 0s
config **.hostSSH[*].app[3].stopTime 4s
config **.hostSSH[*].app[4].startTime 0s
config **.hostSSH[*].app[4].stopTime 5s
config **.hostSSH[*].app[5].startTime 0s
config **.hostSSH[*].app[5].stopTime 7s
config **.hostSSH[*].app[6].startTime 0s
config **.hostSSH[*].app[6].stopTime 8s
config **.hostSSH[*].app[7].startTime 0s
config **.hostSSH[*].app[7].stopTime 6s
config **.hostSSH[*].app[8].startTime 1s
config **.hostSSH[*].app[8].stopTime 9s
config **.hostSSH[*].app[9].startTime 1s
config **.hostSSH[*].app[9].stopTime 6s
config **.hostSSH[*].app[10].startTime 1s
config **.hostSSH[*].app[10].stopTime 5s
config **.hostSSH[*].app[11].startTime 2s
config **.hostSSH[*].app[11].stopTime 7s
config **.hostSSH[*].app[12].startTime 2s
config **.hostSSH[*].app[12].stopTime 7s
config **.hostSSH[*].app[13].startTime 2s
config **.hostSSH[*].app[13].stopTime 10s
config **.hostSSH[*].app[14].startTime 2s
config **.hostSSH[*].app[14].stopTime 7s
config **.hostSSH[*].app[15].startTime 3s
config **.hostSSH[*].app[15].stopTime 9s
config **.hostSSH[*].app[16].startTime 3s
config **.hostSSH[*].app[16].stopTime 9s
config **.hostSSH[*].app[17].startTime 3s
config **.hostSSH[*].app[17].stopTime 7s
config **.hostSSH[*].app[18].startTime 3s
config **.hostSSH[*].app[18].stopTime 6s
config **.hostSSH[*].app[19].startTime 3s
config **.hostSSH[*].app[19].stopTime 9s
config **.hostSSH[*].app[20].startTime 4s
config **.hostSSH[*].app[20].stopTime 14s
config **.hostSSH[*].app[21].startTime 4s
config **.hostSSH[*].app[21].stopTime 9s
config **.hostSSH[*].app[22].startTime 4s
config **.hostSSH[*].app[22].stopTime 11s
config **.hostSSH[*].app[23].startTime 4s
config **.hostSSH[*].app[23].stopTime 10s
config **.hostSSH[*].app[24].startTime 4s
config **.hostSSH[*].app[24].stopTime 7s
config **.hostSSH[*].app[25].startTime 4s
config **.hostSSH[*].app[25].stopTime 7s
config **.hostSSH[*].app[26].startTime 4s
config **.hostSSH[*].app[26].stopTime 10s
config **.hostSSH[*].app[27].startTime 4s
config **.hostSSH[*].app[27].stopTime 15s
config **.hostSSH[*].app[28].startTime 5s
config **.hostSSH[*].app[28].stopTime 12s
config **.hostSSH[*].app[29].startTime 5s
config **.hostSSH[*].app[29].stopTime 16s
config **.hostSSH[*].app[30].startTime 5s
config **.hostSSH[*].app[30].stopTime 11s
config **.hostSSH[*].app[31].startTime 5s
config **.hostSSH[*].app[31].stopTime 15s
config **.hostSSH[*].app[32].startTime 6s
config **.hostSSH[*].app[32].stopTime 12s
config **.hostSSH[*].app[33].startTime 6s
config **.hostSSH[*].app[33].stopTime 11s
config **.hostSSH[*].app[34].startTime 6s
config **.hostSSH[*].app[34].stopTime 7s
config **.hostSSH[*].app[35].startTime 6s
config **.hostSSH[*].app[35].stopTime 14s
config **.hostSSH[*].app[36].startTime 7s
config **.hostSSH[*].app[36].stopTime 15s
config **.hostSSH[*].app[37].startTime 7s
config **.hostSSH[*].app[37].stopTime 15s
config **.hostSSH[*].app[38].startTime 7s
config **.hostSSH[*].app[38].stopTime 11s
config **.hostSSH[*].app[39].startTime 7s
config **.hostSSH[*].app[39].stopTime 13s
config **.hostSSH[*].app[40].startTime 7s
config **.hostSSH[*].app[40].stopTime 22s
config **.hostSSH[*].app[41].startTime 7s
config **.hostSSH[*].app[41].stopTime 12s
config **.hostSSH[*].app[42].startTime 7s
config **.hostSSH[*].app[42].stopTime 13s
config **.hostSSH[*].app[43].startTime 9s
config **.hostSSH[*].app[43].stopTime 15s
config **.hostSSH[*].app[44].startTime 9s
config **.hostSSH[*].app[44].stopTime 16s
config **.hostSSH[*].app[45].startTime 9s
config **.hostSSH[*].app[45].stopTime 15s
config **.hostSSH[*].app[46].startTime 9s
config **.hostSSH[*].app[46].stopTime 14s
config **.hostSSH[*].app[47].startTime 10s
config **.hostSSH[*].app[47].stopTime 13s
config **.hostSSH[*].app[48].startTime 10s
config **.hostSSH[*].app[48].stopTime 17s
config **.hostSSH[*].app[49].startTime 10s
config **.hostSSH[*].app[49].stopTime 14s
config **.hostSSH[*].app[50].startTime 11s
config **.hostSSH[*].app[50].stopTime 18s
config **.hostSSH[*].app[51].startTime 11s
config **.hostSSH[*].app[51].stopTime 17s
config **.hostSSH[*].app[52].startTime 11s
config **.hostSSH[*].app[52].stopTime 14s
config **.hostSSH[*].app[53].startTime 12s
config **.hostSSH[*].app[53].stopTime 18s
config **.hostSSH[*].app[54].startTime 12s
config **.hostSSH[*].app[54].stopTime 16s
config **.hostSSH[*].app[55].startTime 13s
config **.hostSSH[*].app[55].stopTime 22s
config **.hostSSH[*].app[56].startTime 13s
config **.hostSSH[*].app[56].stopTime 20s
config **.hostSSH[*].app[57].startTime 13s
config **.hostSSH[*].app[57].stopTime 19s
config **.hostSSH[*].app[58].startTime 14s
config **.hostSSH[*].app[58].stopTime 23s
config **.hostSSH[*].app[59].startTime 14s
config **.hostSSH[*].app[59].stopTime 23s
config **.hostSSH[*].app[60].startTime 14s
config **.hostSSH[*].app[60].stopTime 22s
config **.hostSSH[*].app[61].startTime 14s
config **.hostSSH[*].app[61].stopTime 18s
config **.hostSSH[*].app[62].startTime 15s
config **.hostSSH[*].app[62].stopTime 22s
config **.hostSSH[*].app[63].startTime 15s
config **.hostSSH[*].app[63].stopTime 26s
config **.hostSSH[*].app[64].startTime 15s
config **.hostSSH[*].app[64].stopTime 19s
config **.hostSSH[*].app[65].startTime 16s
config **.hostSSH[*].app[65].stopTime 23s
config **.hostSSH[*].app[66].startTime 16s
config **.hostSSH[*].app[66].stopTime 23s
config **.hostSSH[*].app[67].startTime 16s
config **.hostSSH[*].app[67].stopTime 24s
config **.hostSSH[*].app[68].startTime 17s
config **.hostSSH[*].app[68].stopTime 26s
config **.hostSSH[*].app[69].startTime 17s
config **.hostSSH[*].app[69].stopTime 22s
config **.hostSSH[*].app[70].startTime 17s
config **.hostSSH[*].app[70].stopTime 26s
config **.hostSSH[*].app[71].startTime 17s
config **.hostSSH[*].app[71].stopTime 21s
config **.hostSSH[*].app[72].startTime 17s
config **.hostSSH[*].app[72].stopTime 22s
config **.hostSSH[*].app[73].startTime 18s
config **.hostSSH[*].app[73].stopTime 22s
config **.hostSSH[*].app[74].startTime 18s
config **.hostSSH[*].app[74].stopTime 24s
config **.hostSSH[*].app[75].startTime 18s
config **.hostSSH[*].app[75].stopTime 27s
config **.hostSSH[*].app[76].startTime 18s
config **.hostSSH[*].app[76].stopTime 23s
config **.hostSSH[*].app[77].startTime 18s
config **.hostSSH[*].app[77].stopTime 25s
config **.hostSSH[*].app[78].startTime 18s
config **.hostSSH[*].app[78].stopTime 27s
config **.hostSSH[*].app[79].startTime 18s
config **.hostSSH[*].app[79].stopTime 22s
config **.hostSSH[*].app[80].startTime 19s
config **.hostSSH[*].app[80].stopTime 22s
config **.hostSSH[*].app[81].startTime 19s
config **.hostSSH[*].app[81].stopTime 26s
config **.hostSSH[*].app[82].startTime 19s
config **.hostSSH[*].app[82].stopTime 23s
config **.hostSSH[*].app[83].startTime 19s
config **.hostSSH[*].app[83].stopTime 25s
config **.hostSSH[*].app[84].startTime 20s
config **.hostSSH[*].app[84].stopTime 25s
config **.hostSSH[*].app[85].startTime 20s
config **.hostSSH[*].app[85].stopTime 23s
config **.hostSSH[*].app[86].startTime 20s
config **.hostSSH[*].app[86].stopTime 22s
config **.hostSSH[*].app[87].startTime 20s
config **.hostSSH[*].app[87].stopTime 26s
config **.hostSSH[*].app[88].startTime 20s
config **.hostSSH[*].app[88].stopTime 29s
config **.hostSSH[*].app[89].startTime 21s
config **.hostSSH[*].app[89].stopTime 28s
config **.hostSSH[*].app[90].startTime 21s
config **.hostSSH[*].app[90].stopTime 25s
config **.hostSSH[*].app[91].startTime 22s
config **.hostSSH[*].app[91].stopTime 32s
config **.hostSSH[*].app[92].startTime 22s
config **.hostSSH[*].app[92].stopTime 28s
config **.hostSSH[*].app[93].startTime 22s
config **.hostSSH[*].app[93].stopTime 32s
config **.hostSSH[*].app[94].startTime 23s
config **.hostSSH[*].app[94].stopTime 29s
config **.hostSSH[*].app[95].startTime 23s
config **.hostSSH[*].app[95].stopTime 25s
config **.hostSSH[*].app[96].startTime 23s
config **.hostSSH[*].app[96].stopTime 32s
config **.hostSSH[*].app[97].startTime 23s
config **.hostSSH[*].app[97].stopTime 28s
config **.hostSSH[*].app[98].startTime 23s
config **.hostSSH[*].app[98].stopTime 28s
config **.hostSSH[*].app[99].startTime 24s
config **.hostSSH[*].app[99].stopTime 29s
config **.hostSSH[*].app[100].startTime 24s
config **.hostSSH[*].app[100].stopTime 32s
config **.hostSSH[*].app[101].startTime 25s
config **.hostSSH[*].app[101].stopTime 29s
config **.hostSSH[*].app[102].startTime 25s
config **.hostSSH[*].app[102].stopTime 28s
config **.hostSSH[*].app[103].startTime 25s
config **.hostSSH[*].app[103].stopTime 29s
config **.hostSSH[*].app[104].startTime 25s
config **.hostSSH[*].app[104].stopTime 27s
config **.hostSSH[*].app[105].startTime 25s
config **.hostSSH[*].app[105].stopTime 30s
config **.hostSSH[*].app[106].startTime 25s
config **.hostSSH[*].app[106].stopTime 28s
config **.hostSSH[*].app[107].startTime 26s
config **.hostSSH[*].app[107].stopTime 33s
config **.hostSSH[*].app[108].startTime 26s
config **.hostSSH[*].app[108].stopTime 30s
config **.hostSSH[*].app[109].startTime 26s
config **.hostSSH[*].app[109].stopTime 32s
config **.hostSSH[*].app[110].startTime 26s
config **.hostSSH[*].app[110].stopTime 31s
config **.hostSSH[*].app[111].startTime 26s
config **.hostSSH[*].app[111].stopTime 29s
config **.hostSSH[*].app[112].startTime 26s
config **.hostSSH[*].app[112].stopTime 37s
config **.hostSSH[*].app[113].startTime 26s
config **.hostSSH[*].app[113].stopTime 33s
config **.hostSSH[*].app[114].startTime 26s
config **.hostSSH[*].app[114].stopTime 33s
config **.hostSSH[*].app[115].startTime 27s
config **.hostSSH[*].app[115].stopTime 32s
config **.hostSSH[*].app[116].startTime 27s
config **.hostSSH[*].app[116].stopTime 32s
config **.hostSSH[*].app[117].startTime 27s
config **.hostSSH[*].app[117].stopTime 33s
config **.hostSSH[*].app[118].startTime 27s
config **.hostSSH[*].app[118].stopTime 36s
config **.hostSSH[*].app[119].startTime 27s
config **.hostSSH[*].app[119].stopTime 32s
config **.hostSSH[*].app[120].startTime 28s
config **.hostSSH[*].app[120].stopTime 31s
config **.hostSSH[*].app[121].startTime 28s
config **.hostSSH[*].app[121].stopTime 30s
config **.hostSSH[*].app[122].startTime 28s
config **.hostSSH[*].app[122].stopTime 33s
config **.hostSSH[*].app[123].startTime 28s
config **.hostSSH[*].app[123].stopTime 31s
config **.hostSSH[*].app[124].startTime 28s
config **.hostSSH[*].app[124].stopTime 35s
config **.hostSSH[*].app[125].startTime 29s
config **.hostSSH[*].app[125].stopTime 33s
config **.hostSSH[*].app[126].startTime 29s
config **.hostSSH[*].app[126].stopTime 35s
config **.hostSSH[*].app[127].startTime 29s
config **.hostSSH[*].app[127].stopTime 37s
config **.hostSSH[*].app[128].startTime 29s
config **.hostSSH[*].app[128].stopTime 31s
config **.hostSSH[*].app[129].startTime 30s
config **.hostSSH[*].app[129].stopTime 33s
config **.hostSSH[*].app[130].startTime 30s
config **.hostSSH[*].app[130].stopTime 37s
config **.hostSSH[*].app[131].startTime 30s
config **.hostSSH[*].app[131].stopTime 33s
config **.hostSSH[*].app[132].startTime 31s
config **.hostSSH[*].app[132].stopTime 39s
config **.hostSSH[*].app[133].startTime 31s
config **.hostSSH[*].app[133].stopTime 38s
config **.hostSSH[*].app[134].startTime 31s
config **.hostSSH[*].app[134].stopTime 36s
config **.hostSSH[*].app[135].startTime 32s
config **.hostSSH[*].app[135].stopTime 42s
config **.hostSSH[*].app[136].startTime 32s
config **.hostSSH[*].app[136].stopTime 35s
config **.hostSSH[*].app[137].startTime 32s
config **.hostSSH[*].app[137].stopTime 37s
config **.hostSSH[*].app[138].startTime 33s
config **.hostSSH[*].app[138].stopTime 36s
config **.hostSSH[*].app[139].startTime 33s
config **.hostSSH[*].app[139].stopTime 37s
config **.hostSSH[*].app[140].startTime 33s
config **.hostSSH[*].app[140].stopTime 36s
config **.hostSSH[*].app[141].startTime 33s
config **.hostSSH[*].app[141].stopTime 37s
config **.hostSSH[*].app[142].startTime 34s
config **.hostSSH[*].app[142].stopTime 43s
config **.hostSSH[*].app[143].startTime 34s
config **.hostSSH[*].app[143].stopTime 40s
config **.hostSSH[*].app[144].startTime 34s
config **.hostSSH[*].app[144].stopTime 38s
config **.hostSSH[*].app[145].startTime 34s
config **.hostSSH[*].app[145].stopTime 39s
config **.hostSSH[*].app[146].startTime 35s
config **.hostSSH[*].app[146].stopTime 38s
config **.hostSSH[*].app[147].startTime 35s
config **.hostSSH[*].app[147].stopTime 38s
config **.hostSSH[*].app[148].startTime 35s
config **.hostSSH[*].app[148].stopTime 44s
config **.hostSSH[*].app[149].startTime 35s
config **.hostSSH[*].app[149].stopTime 46s
config **.hostSSH[*].app[150].startTime 36s
config **.hostSSH[*].app[150].stopTime 40s
config **.hostSSH[*].app[151].startTime 36s
config **.hostSSH[*].app[151].stopTime 41s
config **.hostSSH[*].app[152].startTime 37s
config **.hostSSH[*].app[152].stopTime 42s
config **.hostSSH[*].app[153].startTime 37s
config **.hostSSH[*].app[153].stopTime 44s
config **.hostSSH[*].app[154].startTime 37s
config **.hostSSH[*].app[154].stopTime 40s
config **.hostSSH[*].app[155].startTime 38s
config **.hostSSH[*].app[155].stopTime 40s
config **.hostSSH[*].app[156].startTime 38s
config **.hostSSH[*].app[156].stopTime 44s
config **.hostSSH[*].app[157].startTime 38s
config **.hostSSH[*].app[157].stopTime 42s
config **.hostSSH[*].app[158].startTime 38s
config **.hostSSH[*].app[158].stopTime 42s
config **.hostSSH[*].app[159].startTime 38s
config **.hostSSH[*].app[159].stopTime 46s
config **.hostSSH[*].app[160].startTime 39s
config **.hostSSH[*].app[160].stopTime 46s
config **.hostSSH[*].app[161].startTime 39s
config **.hostSSH[*].app[161].stopTime 46s
config **.hostSSH[*].app[162].startTime 40s
config **.hostSSH[*].app[162].stopTime 47s
config **.hostSSH[*].app[163].startTime 40s
config **.hostSSH[*].app[163].stopTime 46s
config **.hostSSH[*].app[164].startTime 40s
config **.hostSSH[*].app[164].stopTime 45s
config **.hostSSH[*].app[165].startTime 40s
config **.hostSSH[*].app[165].stopTime 46s
config **.hostSSH[*].app[166].startTime 40s
config **.hostSSH[*].app[166].stopTime 51s
config **.hostSSH[*].app[167].startTime 40s
config **.hostSSH[*].app[167].stopTime 48s
config **.hostSSH[*].app[168].startTime 40s
config **.hostSSH[*].app[168].stopTime 47s
config **.hostSSH[*].app[169].startTime 41s
config **.hostSSH[*].app[169].stopTime 45s
config **.hostSSH[*].app[170].startTime 41s
config **.hostSSH[*].app[170].stopTime 47s
config **.hostSSH[*].app[171].startTime 41s
config **.hostSSH[*].app[171].stopTime 50s
config **.hostSSH[*].app[172].startTime 42s
config **.hostSSH[*].app[172].stopTime 47s
config **.hostSSH[*].app[173].startTime 42s
config **.hostSSH[*].app[173].stopTime 54s
config **.hostSSH[*].app[174].startTime 42s
config **.hostSSH[*].app[174].stopTime 48s
config **.hostSSH[*].app[175].startTime 42s
config **.hostSSH[*].app[175].stopTime 50s
config **.hostSSH[*].app[176].startTime 42s
config **.hostSSH[*].app[176].stopTime 51s
config **.hostSSH[*].app[177].startTime 43s
config **.hostSSH[*].app[177].stopTime 50s
config **.hostSSH[*].app[178].startTime 43s
config **.hostSSH[*].app[178].stopTime 47s
config **.hostSSH[*].app[179].startTime 43s
config **.hostSSH[*].app[179].stopTime 47s
config **.hostSSH[*].app[180].startTime 44s
config **.hostSSH[*].app[180].stopTime 48s
config **.hostSSH[*].app[181].startTime 44s
config **.hostSSH[*].app[181].stopTime 49s
config **.hostSSH[*].app[182].startTime 45s
config **.hostSSH[*].app[182].stopTime 50s
config **.hostSSH[*].app[183].startTime 45s
config **.hostSSH[*].app[183].stopTime 53s
config **.hostSSH[*].app[184].startTime 45s
config **.hostSSH[*].app[184].stopTime 53s
config **.hostSSH[*].app[185].startTime 45s
config **.hostSSH[*].app[185].stopTime 53s
config **.hostSSH[*].app[186].startTime 46s
config **.hostSSH[*].app[186].stopTime 51s
config **.hostSSH[*].app[187].startTime 46s
config **.hostSSH[*].app[187].stopTime 50s
config **.hostSSH[*].app[188].startTime 46s
config **.hostSSH[*].app[188].stopTime 52s
config **.hostSSH[*].app[189].startTime 46s
config **.hostSSH[*].app[189].stopTime 53s
config **.hostSSH[*].app[190].startTime 46s
config **.hostSSH[*].app[190].stopTime 53s
config **.hostSSH[*].app[191].startTime 46s
config **.hostSSH[*].app[191].stopTime 50s
config **.hostSSH[*].app[192].startTime 46s
config **.hostSSH[*].app[192].stopTime 49s
config **.hostSSH[*].app[193].startTime 46s
config **.hostSSH[*].app[193].stopTime 53s
config **.hostSSH[*].app[194].startTime 46s
config **.hostSSH[*].app[194].stopTime 54s
config **.hostSSH[*].app[195].startTime 47s
config **.hostSSH[*].app[195].stopTime 52s
config **.hostSSH[*].app[196].startTime 47s
config **.hostSSH[*].app[196].stopTime 53s
config **.hostSSH[*].app[197].startTime 47s
config **.hostSSH[*].app[197].stopTime 55s
config **.hostSSH[*].app[198].startTime 48s
config **.hostSSH[*].app[198].stopTime 53s
config **.hostSSH[*].app[199].startTime 48s
config **.hostSSH[*].app[199].stopTime 56s
config **.hostSSH[*].app[200].startTime 48s
config **.hostSSH[*].app[200].stopTime 59s
config **.serverVIP.app[0].startTime 0s
config **.serverVIP.app[0].stopTime 9s
config **.serverVIP.app[1].startTime 0s
config **.serverVIP.app[1].stopTime 10s
config **.serverVIP.app[2].startTime 0s
config **.serverVIP.app[2].stopTime 5s
config **.serverVIP.app[3].startTime 1s
config **.serverVIP.app[3].stopTime 9s
config **.serverVIP.app[4].startTime 1s
config **.serverVIP.app[4].stopTime 7s
config **.serverVIP.app[5].startTime 2s
config **.serverVIP.app[5].stopTime 13s
config **.serverVIP.app[6].startTime 2s
config **.serverVIP.app[6].stopTime 12s
config **.serverVIP.app[7].startTime 3s
config **.serverVIP.app[7].stopTime 10s
config **.serverVIP.app[8].startTime 4s
config **.serverVIP.app[8].stopTime 14s
config **.serverVIP.app[9].startTime 5s
config **.serverVIP.app[9].stopTime 9s
config **.serverVIP.app[10].startTime 5s
config **.serverVIP.app[10].stopTime 15s
config **.serverVIP.app[11].startTime 5s
config **.serverVIP.app[11].stopTime 13s
config **.serverVIP.app[12].startTime 5s
config **.serverVIP.app[12].stopTime 12s
config **.serverVIP.app[13].startTime 5s
config **.serverVIP.app[13].stopTime 15s
config **.serverVIP.app[14].startTime 6s
config **.serverVIP.app[14].stopTime 17s
config **.serverVIP.app[15].startTime 6s
config **.serverVIP.app[15].stopTime 15s
config **.serverVIP.app[16].startTime 7s
config **.serverVIP.app[16].stopTime 16s
config **.serverVIP.app[17].startTime 9s
config **.serverVIP.app[17].stopTime 19s
config **.serverVIP.app[18].startTime 10s
config **.serverVIP.app[18].stopTime 16s
config **.serverVIP.app[19].startTime 10s
config **.serverVIP.app[19].stopTime 17s
config **.serverVIP.app[20].startTime 10s
config **.serverVIP.app[20].stopTime 15s
config **.serverVIP.app[21].startTime 13s
config **.serverVIP.app[21].stopTime 23s
config **.serverVIP.app[22].startTime 13s
config **.serverVIP.app[22].stopTime 20s
config **.serverVIP.app[23].startTime 13s
config **.serverVIP.app[23].stopTime 19s
config **.serverVIP.app[24].startTime 13s
config **.serverVIP.app[24].stopTime 19s
config **.serverVIP.app[25].startTime 14s
config **.serverVIP.app[25].stopTime 20s
config **.serverVIP.app[26].startTime 15s
config **.serverVIP.app[26].stopTime 19s
config **.serverVIP.app[27].startTime 16s
config **.serverVIP.app[27].stopTime 23s
config **.serverVIP.app[28].startTime 16s
config **.serverVIP.app[28].stopTime 25s
config **.serverVIP.app[29].startTime 16s
config **.serverVIP.app[29].stopTime 24s
config **.serverVIP.app[30].startTime 16s
config **.serverVIP.app[30].stopTime 26s
config **.serverVIP.app[31].startTime 16s
config **.serverVIP.app[31].stopTime 21s
config **.serverVIP.app[32].startTime 17s
config **.serverVIP.app[32].stopTime 23s
config **.serverVIP.app[33].startTime 17s
config **.serverVIP.app[33].stopTime 21s
config **.serverVIP.app[34].startTime 18s
config **.serverVIP.app[34].stopTime 26s
config **.serverVIP.app[35].startTime 19s
config **.serverVIP.app[35].stopTime 29s
config **.serverVIP.app[36].startTime 19s
config **.serverVIP.app[36].stopTime 25s
config **.serverVIP.app[37].startTime 19s
config **.serverVIP.app[37].stopTime 25s
config **.serverVIP.app[38].startTime 19s
config **.serverVIP.app[38].stopTime 29s
config **.serverVIP.app[39].startTime 20s
config **.serverVIP.app[39].stopTime 29s
config **.serverVIP.app[40].startTime 20s
config **.serverVIP.app[40].stopTime 27s
config **.serverVIP.app[41].startTime 22s
config **.serverVIP.app[41].stopTime 27s
config **.serverVIP.app[42].startTime 22s
config **.serverVIP.app[42].stopTime 28s
config **.serverVIP.app[43].startTime 23s
config **.serverVIP.app[43].stopTime 33s
config **.serverVIP.app[44].startTime 24s
config **.serverVIP.app[44].stopTime 31s
config **.serverVIP.app[45].startTime 24s
config **.serverVIP.app[45].stopTime 29s
config **.serverVIP.app[46].startTime 24s
config **.serverVIP.app[46].stopTime 30s
config **.serverVIP.app[47].startTime 24s
config **.serverVIP.app[47].stopTime 30s
config **.serverVIP.app[48].startTime 25s
config **.serverVIP.app[48].stopTime 28s
config **.serverVIP.app[49].startTime 26s
config **.serverVIP.app[49].stopTime 30s
config **.serverVIP.app[50].startTime 27s
config **.serverVIP.app[50].stopTime 33s
config **.serverVIP.app[51].startTime 27s
config **.serverVIP.app[51].stopTime 37s
config **.serverVIP.app[52].startTime 27s
config **.serverVIP.app[52].stopTime 32s
config **.serverVIP.app[53].startTime 27s
config **.serverVIP.app[53].stopTime 35s
config **.serverVIP.app[54].startTime 27s
config **.serverVIP.app[54].stopTime 37s
config **.serverVIP.app[55].startTime 28s
config **.serverVIP.app[55].stopTime 42s
config **.serverVIP.app[56].startTime 29s
config **.serverVIP.app[56].stopTime 36s
config **.serverVIP.app[57].startTime 30s
config **.serverVIP.app[57].stopTime 34s
config **.serverVIP.app[58].startTime 30s
config **.serverVIP.app[58].stopTime 40s
config **.serverVIP.app[59].startTime 30s
config **.serverVIP.app[59].stopTime 40s
config **.serverVIP.app[60].startTime 31s
config **.serverVIP.app[60].stopTime 42s
config **.serverVIP.app[61].startTime 32s
config **.serverVIP.app[61].stopTime 40s
config **.serverVIP.app[62].startTime 32s
config **.serverVIP.app[62].stopTime 39s
config **.serverVIP.app[63].startTime 32s
config **.serverVIP.app[63].stopTime 39s
config **.serverVIP.app[64].startTime 33s
config **.serverVIP.app[64].stopTime 40s
config **.serverVIP.app[65].startTime 34s
config **.serverVIP.app[65].stopTime 41s
config **.serverVIP.app[66].startTime 35s
config **.serverVIP.app[66].stopTime 43s
config **.serverVIP.app[67].startTime 35s
config **.serverVIP.app[67].stopTime 46s
config **.serverVIP.app[68].startTime 36s
config **.serverVIP.app[68].stopTime 45s
config **.serverVIP.app[69].startTime 36s
config **.serverVIP.app[69].stopTime 43s
config **.serverVIP.app[70].startTime 36s
config **.serverVIP.app[70].stopTime 44s
config **.serverVIP.app[71].startTime 36s
config **.serverVIP.app[71].stopTime 40s
config **.serverVIP.app[72].startTime 37s
config **.serverVIP.app[72].stopTime 44s
config **.serverVIP.app[73].startTime 37s
config **.serverVIP.app[73].stopTime 42s
config **.serverVIP.app[74].startTime 37s
config **.serverVIP.app[74].stopTime 40s
config **.serverVIP.app[75].startTime 38s
config **.serverVIP.app[75].stopTime 48s
config **.serverVIP.app[76].startTime 38s
config **.serverVIP.app[76].stopTime 46s
config **.serverVIP.app[77].startTime 38s
config **.serverVIP.app[77].stopTime 43s
config **.serverVIP.app[78].startTime 38s
config **.serverVIP.app[78].stopTime 42s
config **.serverVIP.app[79].startTime 38s
config **.serverVIP.app[79].stopTime 47s
config **.serverVIP.app[80].startTime 39s
config **.serverVIP.app[80].stopTime 44s
config **.serverVIP.app[81].startTime 40s
config **.serverVIP.app[81].stopTime 51s
config **.serverVIP.app[82].startTime 40s
config **.serverVIP.app[82].stopTime 44s
config **.serverVIP.app[83].startTime 40s
config **.serverVIP.app[83].stopTime 52s
config **.serverVIP.app[84].startTime 40s
config **.serverVIP.app[84].stopTime 50s
config **.serverVIP.app[85].startTime 42s
config **.serverVIP.app[85].stopTime 48s
config **.serverVIP.app[86].startTime 42s
config **.serverVIP.app[86].stopTime 47s
config **.serverVIP.app[87].startTime 42s
config **.serverVIP.app[87].stopTime 49s
config **.serverVIP.app[88].startTime 42s
config **.serverVIP.app[88].stopTime 45s
config **.serverVIP.app[89].startTime 42s
config **.serverVIP.app[89].stopTime 53s
config **.serverVIP.app[90].startTime 42s
config **.serverVIP.app[90].stopTime 48s
config **.serverVIP.app[91].startTime 43s
config **.serverVIP.app[91].stopTime 47s
config **.serverVIP.app[92].startTime 43s
config **.serverVIP.app[92].stopTime 53s
config **.serverVIP.app[93].startTime 45s
config **.serverVIP.app[93].stopTime 53s
config **.serverVIP.app[94].startTime 46s
config **.serverVIP.app[94].stopTime 52s
config **.serverVIP.app[95].startTime 46s
config **.serverVIP.app[95].stopTime 53s
config **.serverVIP.app[96].startTime 47s
config **.serverVIP.app[96].stopTime 51s
config **.serverVIP.app[97].startTime 47s
config **.serverVIP.app[97].stopTime 52s
config **.serverVIP.app[98].startTime 48s
config **.serverVIP.app[98].stopTime 56s
config **.serverVIP.app[99].startTime 48s
config **.serverVIP.app[99].stopTime 52s
config **.hostVID[*].app[0].startTime 1s
config **.hostVID[*].app[0].stopTime 8s
config **.hostVID[*].app[1].startTime 2s
config **.hostVID[*].app[1].stopTime 10s
config **.hostVID[*].app[2].startTime 6s
config **.hostVID[*].app[2].stopTime 15s
config **.hostVID[*].app[3].startTime 7s
config **.hostVID[*].app[3].stopTime 18s
config **.hostVID[*].app[4].startTime 9s
config **.hostVID[*].app[4].stopTime 18s
config **.hostVID[*].app[5].startTime 11s
config **.hostVID[*].app[5].stopTime 19s
config **.hostVID[*].app[6].startTime 12s
config **.hostVID[*].app[6].stopTime 18s
config **.hostVID[*].app[7].startTime 16s
config **.hostVID[*].app[7].stopTime 26s
config **.hostVID[*].app[8].startTime 17s
config **.hostVID[*].app[8].stopTime 27s
config **.hostVID[*].app[9].startTime 18s
config **.hostVID[*].app[9].stopTime 21s
config **.hostVID[*].app[10].startTime 23s
config **.hostVID[*].app[10].stopTime 30s
config **.hostVID[*].app[11].startTime 26s
config **.hostVID[*].app[11].stopTime 34s
config **.hostVID[*].app[12].startTime 26s
config **.hostVID[*].app[12].stopTime 33s
config **.hostVID[*].app[13].startTime 27s
config **.hostVID[*].app[13].stopTime 34s
config **.hostVID[*].app[14].startTime 30s
config **.hostVID[*].app[14].stopTime 37s
config **.hostVID[*].app[15].startTime 31s
config **.hostVID[*].app[15].stopTime 37s
config **.hostVID[*].app[16].startTime 31s
config **.hostVID[*].app[16].stopTime 36s
config **.hostVID[*].app[17].startTime 32s
config **.hostVID[*].app[17].stopTime 41s
config **.hostVID[*].app[18].startTime 32s
config **.hostVID[*].app[18].stopTime 41s
config **.hostVID[*].app[19].startTime 33s
config **.hostVID[*].app[19].stopTime 43s
config **.hostVID[*].app[20].startTime 33s
config **.hostVID[*].app[20].stopTime 40s
config **.hostVID[*].app[21].startTime 38s
config **.hostVID[*].app[21].stopTime 45s
config **.hostVID[*].app[22].startTime 39s
config **.hostVID[*].app[22].stopTime 48s
config **.hostVID[*].app[23].startTime 39s
config **.hostVID[*].app[23].stopTime 50s
config **.hostVID[*].app[24].startTime 42s
config **.hostVID[*].app[24].stopTime 51s
config **.hostVID[*].app[25].startTime 44s
config **.hostVID[*].app[25].stopTime 51s
config **.hostVID[*].app[26].startTime 44s
config **.hostVID[*].app[26].stopTime 52s
config **.hostVID[*].app[27].startTime 45s
config **.hostVID[*].app[27].stopTime 55s
config **.hostVID[*].app[28].startTime 45s
config **.hostVID[*].app[28].stopTime 54s
config **.hostVID[*].app[29].startTime 47s
config **.hostVID[*].app[29].stopTime 59s
config **.hostVID[*].app[30].startTime 48s
config **.hostVID[*].app[30].stopTime 55s
config **.hostVID[*].app[31].startTime 48s
config **.hostVID[*].app[31].stopTime 57s
config **.hostVID[*].app[32].startTime 48s
config **.hostVID[*].app[32].stopTime 59s
config *.hostLVD[*].app[0].startTime 0s
config *.hostLVD[*].app[0].stopTime 6s
config *.hostLVD[*].app[1].startTime 0s
config *.hostLVD[*].app[1].stopTime 12s
config *.hostLVD[*].app[2].startTime 1s
config *.hostLVD[*].app[2].stopTime 10s
config *.hostLVD[*].app[3].startTime 1s
config *.hostLVD[*].app[3].stopTime 9s
config *.hostLVD[*].app[4].startTime 1s
config *.hostLVD[*].app[4].stopTime 9s
config *.hostLVD[*].app[5].startTime 1s
config *.hostLVD[*].app[5].stopTime 10s
config *.hostLVD[*].app[6].startTime 2s
config *.hostLVD[*].app[6].stopTime 16s
config *.hostLVD[*].app[7].startTime 2s
config *.hostLVD[*].app[7].stopTime 12s
config *.hostLVD[*].app[8].startTime 3s
config *.hostLVD[*].app[8].stopTime 16s
config *.hostLVD[*].app[9].startTime 3s
config *.hostLVD[*].app[9].stopTime 21s
config *.hostLVD[*].app[10].startTime 3s
config *.hostLVD[*].app[10].stopTime 10s
config *.hostLVD[*].app[11].startTime 4s
config *.hostLVD[*].app[11].stopTime 12s
config *.hostLVD[*].app[12].startTime 4s
config *.hostLVD[*].app[12].stopTime 13s
config *.hostLVD[*].app[13].startTime 4s
config *.hostLVD[*].app[13].stopTime 15s
config *.hostLVD[*].app[14].startTime 4s
config *.hostLVD[*].app[14].stopTime 13s
config *.hostLVD[*].app[15].startTime 4s
config *.hostLVD[*].app[15].stopTime 17s
config *.hostLVD[*].app[16].startTime 4s
config *.hostLVD[*].app[16].stopTime 13s
config *.hostLVD[*].app[17].startTime 5s
config *.hostLVD[*].app[17].stopTime 16s
config *.hostLVD[*].app[18].startTime 5s
config *.hostLVD[*].app[18].stopTime 11s
config *.hostLVD[*].app[19].startTime 6s
config *.hostLVD[*].app[19].stopTime 12s
config *.hostLVD[*].app[20].startTime 6s
config *.hostLVD[*].app[20].stopTime 12s
config *.hostLVD[*].app[21].startTime 6s
config *.hostLVD[*].app[21].stopTime 15s
config *.hostLVD[*].app[22].startTime 6s
config *.hostLVD[*].app[22].stopTime 17s
config *.hostLVD[*].app[23].startTime 6s
config *.hostLVD[*].app[23].stopTime 10s
config *.hostLVD[*].app[24].startTime 7s
config *.hostLVD[*].app[24].stopTime 17s
config *.hostLVD[*].app[25].startTime 7s
config *.hostLVD[*].app[25].stopTime 16s
config *.hostLVD[*].app[26].startTime 9s
config *.hostLVD[*].app[26].stopTime 19s
config *.hostLVD[*].app[27].startTime 10s
config *.hostLVD[*].app[27].stopTime 21s
config *.hostLVD[*].app[28].startTime 10s
config *.hostLVD[*].app[28].stopTime 25s
config *.hostLVD[*].app[29].startTime 11s
config *.hostLVD[*].app[29].stopTime 21s
config *.hostLVD[*].app[30].startTime 11s
config *.hostLVD[*].app[30].stopTime 22s
config *.hostLVD[*].app[31].startTime 11s
config *.hostLVD[*].app[31].stopTime 21s
config *.hostLVD[*].app[32].startTime 13s
config *.hostLVD[*].app[32].stopTime 21s
config *.hostLVD[*].app[33].startTime 13s
config *.hostLVD[*].app[33].stopTime 25s
config *.hostLVD[*].app[34].startTime 13s
config *.hostLVD[*].app[34].stopTime 19s
config *.hostLVD[*].app[35].startTime 13s
config *.hostLVD[*].app[35].stopTime 21s
config *.hostLVD[*].app[36].startTime 14s
config *.hostLVD[*].app[36].stopTime 24s
config *.hostLVD[*].app[37].startTime 14s
config *.hostLVD[*].app[37].stopTime 30s
config *.hostLVD[*].app[38].startTime 14s
config *.hostLVD[*].app[38].stopTime 26s
config *.hostLVD[*].app[39].startTime 15s
config *.hostLVD[*].app[39].stopTime 22s
config *.hostLVD[*].app[40].startTime 15s
config *.hostLVD[*].app[40].stopTime 25s
config *.hostLVD[*].app[41].startTime 15s
config *.hostLVD[*].app[41].stopTime 24s
config *.hostLVD[*].app[42].startTime 15s
config *.hostLVD[*].app[42].stopTime 21s
config *.hostLVD[*].app[43].startTime 16s
config *.hostLVD[*].app[43].stopTime 28s
config *.hostLVD[*].app[44].startTime 16s
config *.hostLVD[*].app[44].stopTime 24s
config *.hostLVD[*].app[45].startTime 16s
config *.hostLVD[*].app[45].stopTime 30s
config *.hostLVD[*].app[46].startTime 17s
config *.hostLVD[*].app[46].stopTime 25s
config *.hostLVD[*].app[47].startTime 17s
config *.hostLVD[*].app[47].stopTime 26s
config *.hostLVD[*].app[48].startTime 17s
config *.hostLVD[*].app[48].stopTime 29s
config *.hostLVD[*].app[49].startTime 18s
config *.hostLVD[*].app[49].stopTime 27s
config *.hostLVD[*].app[50].startTime 18s
config *.hostLVD[*].app[50].stopTime 32s
config *.hostLVD[*].app[51].startTime 18s
config *.hostLVD[*].app[51].stopTime 27s
config *.hostLVD[*].app[52].startTime 18s
config *.hostLVD[*].app[52].stopTime 28s
config *.hostLVD[*].app[53].startTime 18s
config *.hostLVD[*].app[53].stopTime 27s
config *.hostLVD[*].app[54].startTime 19s
config *.hostLVD[*].app[54].stopTime 28s
config *.hostLVD[*].app[55].startTime 20s
config *.hostLVD[*].app[55].stopTime 28s
config *.hostLVD[*].app[56].startTime 20s
config *.hostLVD[*].app[56].stopTime 33s
config *.hostLVD[*].app[57].startTime 20s
config *.hostLVD[*].app[57].stopTime 34s
config *.hostLVD[*].app[58].startTime 20s
config *.hostLVD[*].app[58].stopTime 27s
config *.hostLVD[*].app[59].startTime 20s
config *.hostLVD[*].app[59].stopTime 31s
config *.hostLVD[*].app[60].startTime 21s
config *.hostLVD[*].app[60].stopTime 26s
config *.hostLVD[*].app[61].startTime 22s
config *.hostLVD[*].app[61].stopTime 30s
config *.hostLVD[*].app[62].startTime 22s
config *.hostLVD[*].app[62].stopTime 27s
config *.hostLVD[*].app[63].startTime 22s
config *.hostLVD[*].app[63].stopTime 34s
config *.hostLVD[*].app[64].startTime 23s
config *.hostLVD[*].app[64].stopTime 35s
config *.hostLVD[*].app[65].startTime 24s
config *.hostLVD[*].app[65].stopTime 30s
config *.hostLVD[*].app[66].startTime 25s
config *.hostLVD[*].app[66].stopTime 31s
config *.hostLVD[*].app[67].startTime 25s
config *.hostLVD[*].app[67].stopTime 33s
config *.hostLVD[*].app[68].startTime 25s
config *.hostLVD[*].app[68].stopTime 39s
config *.hostLVD[*].app[69].startTime 25s
config *.hostLVD[*].app[69].stopTime 33s
config *.hostLVD[*].app[70].startTime 26s
config *.hostLVD[*].app[70].stopTime 36s
config *.hostLVD[*].app[71].startTime 26s
config *.hostLVD[*].app[71].stopTime 34s
config *.hostLVD[*].app[72].startTime 26s
config *.hostLVD[*].app[72].stopTime 36s
config *.hostLVD[*].app[73].startTime 26s
config *.hostLVD[*].app[73].stopTime 32s
config *.hostLVD[*].app[74].startTime 27s
config *.hostLVD[*].app[74].stopTime 39s
config *.hostLVD[*].app[75].startTime 28s
config *.hostLVD[*].app[75].stopTime 41s
config *.hostLVD[*].app[76].startTime 28s
config *.hostLVD[*].app[76].stopTime 39s
config *.hostLVD[*].app[77].startTime 29s
config *.hostLVD[*].app[77].stopTime 37s
config *.hostLVD[*].app[78].startTime 29s
config *.hostLVD[*].app[78].stopTime 39s
config *.hostLVD[*].app[79].startTime 29s
config *.hostLVD[*].app[79].stopTime 36s
config *.hostLVD[*].app[80].startTime 29s
config *.hostLVD[*].app[80].stopTime 36s
config *.hostLVD[*].app[81].startTime 29s
config *.hostLVD[*].app[81].stopTime 36s
config *.hostLVD[*].app[82].startTime 29s
config *.hostLVD[*].app[82].stopTime 36s
config *.hostLVD[*].app[83].startTime 30s
config *.hostLVD[*].app[83].stopTime 40s
config *.hostLVD[*].app[84].startTime 30s
config *.hostLVD[*].app[84].stopTime 38s
config *.hostLVD[*].app[85].startTime 34s
config *.hostLVD[*].app[85].stopTime 49s
config *.hostLVD[*].app[86].startTime 34s
config *.hostLVD[*].app[86].stopTime 46s
config *.hostLVD[*].app[87].startTime 34s
config *.hostLVD[*].app[87].stopTime 40s
config *.hostLVD[*].app[88].startTime 35s
config *.hostLVD[*].app[88].stopTime 40s
config *.hostLVD[*].app[89].startTime 35s
config *.hostLVD[*].app[89].stopTime 44s
config *.hostLVD[*].app[90].startTime 35s
config *.hostLVD[*].app[90].stopTime 45s
config *.hostLVD[*].app[91].startTime 35s
config *.hostLVD[*].app[91].stopTime 42s
config *.hostLVD[*].app[92].startTime 35s
config *.hostLVD[*].app[92].stopTime 43s
config *.hostLVD[*].app[93].startTime 35s
config *.hostLVD[*].app[93].stopTime 45s
config *.hostLVD[*].app[94].startTime 36s
config *.hostLVD[*].app[94].stopTime 45s
config *.hostLVD[*].app[95].startTime 36s
config *.hostLVD[*].app[95].stopTime 45s
config *.hostLVD[*].app[96].startTime 37s
config *.hostLVD[*].app[96].stopTime 46s
config *.hostLVD[*].app[97].startTime 37s
config *.hostLVD[*].app[97].stopTime 46s
config *.hostLVD[*].app[98].startTime 37s
config *.hostLVD[*].app[98].stopTime 43s
config *.hostLVD[*].app[99].startTime 37s
config *.hostLVD[*].app[99].stopTime 46s
config *.hostLVD[*].app[100].startTime 38s
config *.hostLVD[*].app[100].stopTime 45s
config *.hostLVD[*].app[101].startTime 38s
config *.hostLVD[*].app[101].stopTime 53s
config *.hostLVD[*].app[102].startTime 39s
config *.hostLVD[*].app[102].stopTime 45s
config *.hostLVD[*].app[103].startTime 40s
config *.hostLVD[*].app[103].stopTime 48s
config *.hostLVD[*].app[104].startTime 40s
config *.hostLVD[*].app[104].stopTime 49s
config *.hostLVD[*].app[105].startTime 40s
config *.hostLVD[*].app[105].stopTime 46s
config *.hostLVD[*].app[106].startTime 40s
config *.hostLVD[*].app[106].stopTime 51s
config *.hostLVD[*].app[107].startTime 41s
config *.hostLVD[*].app[107].stopTime 54s
config *.hostLVD[*].app[108].startTime 41s
config *.hostLVD[*].app[108].stopTime 55s
config *.hostLVD[*].app[109].startTime 41s
config *.hostLVD[*].app[109].stopTime 55s
config *.hostLVD[*].app[110].startTime 42s
config *.hostLVD[*].app[110].stopTime 50s
config *.hostLVD[*].app[111].startTime 42s
config *.hostLVD[*].app[111].stopTime 44s
config *.hostLVD[*].app[112].startTime 42s
config *.hostLVD[*].app[112].stopTime 53s
config *.hostLVD[*].app[113].startTime 43s
config *.hostLVD[*].app[113].stopTime 50s
config *.hostLVD[*].app[114].startTime 43s
config *.hostLVD[*].app[114].stopTime 51s
config *.hostLVD[*].app[115].startTime 44s
config *.hostLVD[*].app[115].stopTime 53s
config *.hostLVD[*].app[116].startTime 44s
config *.hostLVD[*].app[116].stopTime 55s
config *.hostLVD[*].app[117].startTime 44s
config *.hostLVD[*].app[117].stopTime 51s
config *.hostLVD[*].app[118].startTime 45s
config *.hostLVD[*].app[118].stopTime 52s
config *.hostLVD[*].app[119].startTime 45s
config *.hostLVD[*].app[119].stopTime 57s
config *.hostLVD[*].app[120].startTime 46s
config *.hostLVD[*].app[120].stopTime 51s
config *.hostLVD[*].app[121].startTime 46s
config *.hostLVD[*].app[121].stopTime 54s
config *.hostLVD[*].app[122].startTime 46s
config *.hostLVD[*].app[122].stopTime 57s
config *.hostLVD[*].app[123].startTime 46s
config *.hostLVD[*].app[123].stopTime 55s
config *.hostLVD[*].app[124].startTime 46s
config *.hostLVD[*].app[124].stopTime 59s
config *.hostLVD[*].app[125].startTime 47s
config *.hostLVD[*].app[125].stopTime 58s
config *.hostLVD[*].app[126].startTime 47s
config *.hostLVD[*].app[126].stopTime 53s
config *.hostLVD[*].app[127].startTime 47s
config *.hostLVD[*].app[127].stopTime 56s
config *.hostLVD[*].app[128].startTime 47s
config *.hostLVD[*].app[128].stopTime 58s
config *.hostLVD[*].app[129].startTime 48s
config *.hostLVD[*].app[129].stopTime 57s
config *.hostFDO[*].app[0].startTime 0s
config *.hostFDO[*].app[0].stopTime 17s
config *.hostFDO[*].app[1].startTime 1s
config *.hostFDO[*].app[1].stopTime 17s
config *.hostFDO[*].app[2].startTime 1s
config *.hostFDO[*].app[2].stopTime 19s
config *.hostFDO[*].app[3].startTime 1s
config *.hostFDO[*].app[3].stopTime 13s
config *.hostFDO[*].app[4].startTime 2s
config *.hostFDO[*].app[4].stopTime 10s
config *.hostFDO[*].app[5].startTime 2s
config *.hostFDO[*].app[5].stopTime 13s
config *.hostFDO[*].app[6].startTime 3s
config *.hostFDO[*].app[6].stopTime 14s
config *.hostFDO[*].app[7].startTime 3s
config *.hostFDO[*].app[7].stopTime 8s
config *.hostFDO[*].app[8].startTime 3s
config *.hostFDO[*].app[8].stopTime 18s
config *.hostFDO[*].app[9].startTime 4s
config *.hostFDO[*].app[9].stopTime 15s
config *.hostFDO[*].app[10].startTime 4s
config *.hostFDO[*].app[10].stopTime 14s
config *.hostFDO[*].app[11].startTime 4s
config *.hostFDO[*].app[11].stopTime 16s
config *.hostFDO[*].app[12].startTime 4s
config *.hostFDO[*].app[12].stopTime 21s
config *.hostFDO[*].app[13].startTime 4s
config *.hostFDO[*].app[13].stopTime 15s
config *.hostFDO[*].app[14].startTime 4s
config *.hostFDO[*].app[14].stopTime 19s
config *.hostFDO[*].app[15].startTime 4s
config *.hostFDO[*].app[15].stopTime 10s
config *.hostFDO[*].app[16].startTime 4s
config *.hostFDO[*].app[16].stopTime 14s
config *.hostFDO[*].app[17].startTime 4s
config *.hostFDO[*].app[17].stopTime 19s
config *.hostFDO[*].app[18].startTime 5s
config *.hostFDO[*].app[18].stopTime 16s
config *.hostFDO[*].app[19].startTime 5s
config *.hostFDO[*].app[19].stopTime 18s
config *.hostFDO[*].app[20].startTime 6s
config *.hostFDO[*].app[20].stopTime 23s
config *.hostFDO[*].app[21].startTime 6s
config *.hostFDO[*].app[21].stopTime 16s
config *.hostFDO[*].app[22].startTime 10s
config *.hostFDO[*].app[22].stopTime 19s
config *.hostFDO[*].app[23].startTime 10s
config *.hostFDO[*].app[23].stopTime 24s
config *.hostFDO[*].app[24].startTime 10s
config *.hostFDO[*].app[24].stopTime 19s
config *.hostFDO[*].app[25].startTime 12s
config *.hostFDO[*].app[25].stopTime 24s
config *.hostFDO[*].app[26].startTime 13s
config *.hostFDO[*].app[26].stopTime 21s
config *.hostFDO[*].app[27].startTime 13s
config *.hostFDO[*].app[27].stopTime 27s
config *.hostFDO[*].app[28].startTime 15s
config *.hostFDO[*].app[28].stopTime 24s
config *.hostFDO[*].app[29].startTime 16s
config *.hostFDO[*].app[29].stopTime 31s
config *.hostFDO[*].app[30].startTime 16s
config *.hostFDO[*].app[30].stopTime 28s
config *.hostFDO[*].app[31].startTime 16s
config *.hostFDO[*].app[31].stopTime 25s
config *.hostFDO[*].app[32].startTime 17s
config *.hostFDO[*].app[32].stopTime 24s
config *.hostFDO[*].app[33].startTime 19s
config *.hostFDO[*].app[33].stopTime 28s
config *.hostFDO[*].app[34].startTime 19s
config *.hostFDO[*].app[34].stopTime 29s
config *.hostFDO[*].app[35].startTime 19s
config *.hostFDO[*].app[35].stopTime 34s
config *.hostFDO[*].app[36].startTime 20s
config *.hostFDO[*].app[36].stopTime 30s
config *.hostFDO[*].app[37].startTime 21s
config *.hostFDO[*].app[37].stopTime 33s
config *.hostFDO[*].app[38].startTime 21s
config *.hostFDO[*].app[38].stopTime 32s
config *.hostFDO[*].app[39].startTime 21s
config *.hostFDO[*].app[39].stopTime 35s
config *.hostFDO[*].app[40].startTime 21s
config *.hostFDO[*].app[40].stopTime 36s
config *.hostFDO[*].app[41].startTime 21s
config *.hostFDO[*].app[41].stopTime 29s
config *.hostFDO[*].app[42].startTime 22s
config *.hostFDO[*].app[42].stopTime 34s
config *.hostFDO[*].app[43].startTime 24s
config *.hostFDO[*].app[43].stopTime 31s
config *.hostFDO[*].app[44].startTime 25s
config *.hostFDO[*].app[44].stopTime 36s
config *.hostFDO[*].app[45].startTime 25s
config *.hostFDO[*].app[45].stopTime 37s
config *.hostFDO[*].app[46].startTime 25s
config *.hostFDO[*].app[46].stopTime 39s
config *.hostFDO[*].app[47].startTime 26s
config *.hostFDO[*].app[47].stopTime 40s
config *.hostFDO[*].app[48].startTime 27s
config *.hostFDO[*].app[48].stopTime 42s
config *.hostFDO[*].app[49].startTime 28s
config *.hostFDO[*].app[49].stopTime 36s
config *.hostFDO[*].app[50].startTime 28s
config *.hostFDO[*].app[50].stopTime 42s
config *.hostFDO[*].app[51].startTime 28s
config *.hostFDO[*].app[51].stopTime 36s
config *.hostFDO[*].app[52].startTime 29s
config *.hostFDO[*].app[52].stopTime 42s
config *.hostFDO[*].app[53].startTime 30s
config *.hostFDO[*].app[53].stopTime 46s
config *.hostFDO[*].app[54].startTime 30s
config *.hostFDO[*].app[54].stopTime 41s
config *.hostFDO[*].app[55].startTime 30s
config *.hostFDO[*].app[55].stopTime 44s
config *.hostFDO[*].app[56].startTime 30s
config *.hostFDO[*].app[56].stopTime 35s
config *.hostFDO[*].app[57].startTime 31s
config *.hostFDO[*].app[57].stopTime 45s
config *.hostFDO[*].app[58].startTime 32s
config *.hostFDO[*].app[58].stopTime 44s
config *.hostFDO[*].app[59].startTime 33s
config *.hostFDO[*].app[59].stopTime 40s
config *.hostFDO[*].app[60].startTime 33s
config *.hostFDO[*].app[60].stopTime 43s
config *.hostFDO[*].app[61].startTime 33s
config *.hostFDO[*].app[61].stopTime 49s
config *.hostFDO[*].app[62].startTime 34s
config *.hostFDO[*].app[62].stopTime 47s
config *.hostFDO[*].app[63].startTime 35s
config *.hostFDO[*].app[63].stopTime 44s
config *.hostFDO[*].app[64].startTime 36s
config *.hostFDO[*].app[64].stopTime 41s
config *.hostFDO[*].app[65].startTime 37s
config *.hostFDO[*].app[65].stopTime 47s
config *.hostFDO[*].app[66].startTime 37s
config *.hostFDO[*].app[66].stopTime 48s
config *.hostFDO[*].app[67].startTime 37s
config *.hostFDO[*].app[67].stopTime 44s
config *.hostFDO[*].app[68].startTime 38s
config *.hostFDO[*].app[68].stopTime 51s
config *.hostFDO[*].app[69].startTime 38s
config *.hostFDO[*].app[69].stopTime 45s
config *.hostFDO[*].app[70].startTime 39s
config *.hostFDO[*].app[70].stopTime 49s
config *.hostFDO[*].app[71].startTime 40s
config *.hostFDO[*].app[71].stopTime 51s
config *.hostFDO[*].app[72].startTime 40s
config *.hostFDO[*].app[72].stopTime 49s
config *.hostFDO[*].app[73].startTime 41s
config *.hostFDO[*].app[73].stopTime 52s
config *.hostFDO[*].app[74].startTime 42s
config *.hostFDO[*].app[74].stopTime 50s
config *.hostFDO[*].app[75].startTime 43s
config *.hostFDO[*].app[75].stopTime 54s
config *.hostFDO[*].app[76].startTime 44s
config *.hostFDO[*].app[76].stopTime 53s
config *.hostFDO[*].app[77].startTime 44s
config *.hostFDO[*].app[77].stopTime 55s
config *.hostFDO[*].app[78].startTime 45s
config *.hostFDO[*].app[78].stopTime 54s
config *.hostFDO[*].app[79].startTime 45s
config *.hostFDO[*].app[79].stopTime 51s
config *.hostFDO[*].app[80].startTime 46s
config *.hostFDO[*].app[80].stopTime 60s
config *.hostFDO[*].app[81].startTime 46s
config *.hostFDO[*].app[81].stopTime 57s
config *.hostFDO[*].app[82].startTime 46s
config *.hostFDO[*].app[82].stopTime 62s
config *.hostFDO[*].app[83].startTime 46s
config *.hostFDO[*].app[83].stopTime 55s
config .hostFDO[0].ppp[0].queue.scheduler.changeTimes "[1, 2, 3, 4, 5, 6, 7, 8, 9, 10, 11, 12, 13, 14, 15, 16, 17, 18, 19, 20, 21, 22, 23, 24, 25, 26, 27, 28, 29, 30, 31, 32, 33, 35, 36, 37, 38, 39, 40, 41, 42, 43, 44, 45, 47, 49, 50, 51, 52, 53, 54, 55]"
config *.router*.ppp[0].queue.typename HtbQueue
config *.router*.ppp[0].queue.numQueues 548
config *.router*.ppp[0].queue.queue[*].typename DropTailQueue
config *.router*.ppp[0].queue.packetCapacity -1
config *.router*.ppp[0].queue.htbHysterisis false
config *.router*.ppp[0].queue.scheduler.adjustHTBTreeValuesForCorectness false
config *.router*.ppp[0].queue.scheduler.checkHTBTreeValuesForCorectness false
config *.router*.ppp[0].queue.htbTreeConfig "readJSON(\"configs/htbTree/testingConfigurator5slices.json\")"
config *.router*.ppp[0].queue.classifier.defaultGateIndex 0
config *.router0.ppp[0].queue.classifier.packetFilters "[expr(ipv4.srcAddress.str() =~ \"10.3.0.0\"),expr(ipv4.srcAddress.str() =~ \"10.3.0.4\"),expr(ipv4.srcAddress.str() =~ \"10.3.0.8\"),expr(ipv4.srcAddress.str() =~ \"10.3.0.12\"),expr(ipv4.srcAddress.str() =~ \"10.3.0.16\"),expr(ipv4.srcAddress.str() =~ \"10.3.0.20\"),expr(ipv4.srcAddress.str() =~ \"10.3.0.24\"),expr(ipv4.srcAddress.str() =~ \"10.3.0.28\"),expr(ipv4.srcAddress.str() =~ \"10.3.0.32\"),expr(ipv4.srcAddress.str() =~ \"10.3.0.36\"),expr(ipv4.srcAddress.str() =~ \"10.3.0.40\"),expr(ipv4.srcAddress.str() =~ \"10.3.0.44\"),expr(ipv4.srcAddress.str() =~ \"10.3.0.48\"),expr(ipv4.srcAddress.str() =~ \"10.3.0.52\"),expr(ipv4.srcAddress.str() =~ \"10.3.0.56\"),expr(ipv4.srcAddress.str() =~ \"10.3.0.60\"),expr(ipv4.srcAddress.str() =~ \"10.3.0.64\"),expr(ipv4.srcAddress.str() =~ \"10.3.0.68\"),expr(ipv4.srcAddress.str() =~ \"10.3.0.72\"),expr(ipv4.srcAddress.str() =~ \"10.3.0.76\"),expr(ipv4.srcAddress.str() =~ \"10.3.0.80\"),expr(ipv4.srcAddress.str() =~ \"10.3.0.84\"),expr(ipv4.srcAddress.str() =~ \"10.3.0.88\"),expr(ipv4.srcAddress.str() =~ \"10.3.0.92\"),expr(ipv4.srcAddress.str() =~ \"10.3.0.96\"),expr(ipv4.srcAddress.str() =~ \"10.3.0.100\"),expr(ipv4.srcAddress.str() =~ \"10.3.0.104\"),expr(ipv4.srcAddress.str() =~ \"10.3.0.108\"),expr(ipv4.srcAddress.str() =~ \"10.3.0.112\"),expr(ipv4.srcAddress.str() =~ \"10.3.0.116\"),expr(ipv4.srcAddress.str() =~ \"10.3.0.120\"),expr(ipv4.srcAddress.str() =~ \"10.3.0.124\"),expr(ipv4.srcAddress.str() =~ \"10.3.0.128\"),expr(ipv4.srcAddress.str() =~ \"10.3.0.132\"),expr(ipv4.srcAddress.str() =~ \"10.3.0.136\"),expr(ipv4.srcAddress.str() =~ \"10.3.0.140\"),expr(ipv4.srcAddress.str() =~ \"10.3.0.144\"),expr(ipv4.srcAddress.str() =~ \"10.3.0.148\"),expr(ipv4.srcAddress.str() =~ \"10.3.0.152\"),expr(ipv4.srcAddress.str() =~ \"10.3.0.156\"),expr(ipv4.srcAddress.str() =~ \"10.3.0.160\"),expr(ipv4.srcAddress.str() =~ \"10.3.0.164\"),expr(ipv4.srcAddress.str() =~ \"10.3.0.168\"),expr(ipv4.srcAddress.str() =~ \"10.3.0.172\"),expr(ipv4.srcAddress.str() =~ \"10.3.0.176\"),expr(ipv4.srcAddress.str() =~ \"10.3.0.180\"),expr(ipv4.srcAddress.str() =~ \"10.3.0.184\"),expr(ipv4.srcAddress.str() =~ \"10.3.0.188\"),expr(ipv4.srcAddress.str() =~ \"10.3.0.192\"),expr(ipv4.srcAddress.str() =~ \"10.3.0.196\"),expr(ipv4.srcAddress.str() =~ \"10.3.0.200\"),expr(ipv4.srcAddress.str() =~ \"10.3.0.204\"),expr(ipv4.srcAddress.str() =~ \"10.3.0.208\"),expr(ipv4.srcAddress.str() =~ \"10.3.0.212\"),expr(ipv4.srcAddress.str() =~ \"10.3.0.216\"),expr(ipv4.srcAddress.str() =~ \"10.3.0.220\"),expr(ipv4.srcAddress.str() =~ \"10.3.0.224\"),expr(ipv4.srcAddress.str() =~ \"10.3.0.228\"),expr(ipv4.srcAddress.str() =~ \"10.3.0.232\"),expr(ipv4.srcAddress.str() =~ \"10.3.0.236\"),expr(ipv4.srcAddress.str() =~ \"10.3.0.240\"),expr(ipv4.srcAddress.str() =~ \"10.3.0.244\"),expr(ipv4.srcAddress.str() =~ \"10.3.0.248\"),expr(ipv4.srcAddress.str() =~ \"10.3.0.252\"),expr(ipv4.srcAddress.str() =~ \"10.3.1.0\"),expr(ipv4.srcAddress.str() =~ \"10.3.1.4\"),expr(ipv4.srcAddress.str() =~ \"10.3.1.8\"),expr(ipv4.srcAddress.str() =~ \"10.3.1.12\"),expr(ipv4.srcAddress.str() =~ \"10.3.1.16\"),expr(ipv4.srcAddress.str() =~ \"10.3.1.20\"),expr(ipv4.srcAddress.str() =~ \"10.3.1.24\"),expr(ipv4.srcAddress.str() =~ \"10.3.1.28\"),expr(ipv4.srcAddress.str() =~ \"10.3.1.32\"),expr(ipv4.srcAddress.str() =~ \"10.3.1.36\"),expr(ipv4.srcAddress.str() =~ \"10.3.1.40\"),expr(ipv4.srcAddress.str() =~ \"10.3.1.44\"),expr(ipv4.srcAddress.str() =~ \"10.3.1.48\"),expr(ipv4.srcAddress.str() =~ \"10.3.1.52\"),expr(ipv4.srcAddress.str() =~ \"10.3.1.56\"),expr(ipv4.srcAddress.str() =~ \"10.3.1.60\"),expr(ipv4.srcAddress.str() =~ \"10.3.1.64\"),expr(ipv4.srcAddress.str() =~ \"10.3.1.68\"),expr(ipv4.srcAddress.str() =~ \"10.3.1.72\"),expr(ipv4.srcAddress.str() =~ \"10.3.1.76\"),expr(ipv4.srcAddress.str() =~ \"10.3.1.80\"),expr(ipv4.srcAddress.str() =~ \"10.3.1.84\"),expr(ipv4.srcAddress.str() =~ \"10.3.1.88\"),expr(ipv4.srcAddress.str() =~ \"10.3.1.92\"),expr(ipv4.srcAddress.str() =~ \"10.3.1.96\"),expr(ipv4.srcAddress.str() =~ \"10.3.1.100\"),expr(ipv4.srcAddress.str() =~ \"10.3.1.104\"),expr(ipv4.srcAddress.str() =~ \"10.3.1.108\"),expr(ipv4.srcAddress.str() =~ \"10.3.1.112\"),expr(ipv4.srcAddress.str() =~ \"10.3.1.116\"),expr(ipv4.srcAddress.str() =~ \"10.3.1.120\"),expr(ipv4.srcAddress.str() =~ \"10.3.1.124\"),expr(ipv4.srcAddress.str() =~ \"10.3.1.128\"),expr(ipv4.srcAddress.str() =~ \"10.3.1.132\"),expr(ipv4.srcAddress.str() =~ \"10.3.1.136\"),expr(ipv4.srcAddress.str() =~ \"10.3.1.140\"),expr(ipv4.srcAddress.str() =~ \"10.3.1.144\"),expr(ipv4.srcAddress.str() =~ \"10.3.1.148\"),expr(ipv4.srcAddress.str() =~ \"10.3.1.152\"),expr(ipv4.srcAddress.str() =~ \"10.3.1.156\"),expr(ipv4.srcAddress.str() =~ \"10.3.1.160\"),expr(ipv4.srcAddress.str() =~ \"10.3.1.164\"),expr(ipv4.srcAddress.str() =~ \"10.3.1.168\"),expr(ipv4.srcAddress.str() =~ \"10.3.1.172\"),expr(ipv4.srcAddress.str() =~ \"10.3.1.176\"),expr(ipv4.srcAddress.str() =~ \"10.3.1.180\"),expr(ipv4.srcAddress.str() =~ \"10.3.1.184\"),expr(ipv4.srcAddress.str() =~ \"10.3.1.188\"),expr(ipv4.srcAddress.str() =~ \"10.3.1.192\"),expr(ipv4.srcAddress.str() =~ \"10.3.1.196\"),expr(ipv4.srcAddress.str() =~ \"10.3.1.200\"),expr(ipv4.srcAddress.str() =~ \"10.3.1.204\"),expr(ipv4.srcAddress.str() =~ \"10.3.1.208\"),expr(ipv4.srcAddress.str() =~ \"10.3.1.212\"),expr(ipv4.srcAddress.str() =~ \"10.3.1.216\"),expr(ipv4.srcAddress.str() =~ \"10.3.1.220\"),expr(ipv4.srcAddress.str() =~ \"10.3.1.224\"),expr(ipv4.srcAddress.str() =~ \"10.3.1.228\"),expr(ipv4.srcAddress.str() =~ \"10.3.1.232\"),expr(ipv4.srcAddress.str() =~ \"10.3.1.236\"),expr(ipv4.srcAddress.str() =~ \"10.3.1.240\"),expr(ipv4.srcAddress.str() =~ \"10.3.1.244\"),expr(ipv4.srcAddress.str() =~ \"10.3.1.248\"),expr(ipv4.srcAddress.str() =~ \"10.3.1.252\"),expr(ipv4.srcAddress.str() =~ \"10.3.2.0\"),expr(ipv4.srcAddress.str() =~ \"10.3.2.4\"),expr(ipv4.srcAddress.str() =~ \"10.3.2.8\"),expr(ipv4.srcAddress.str() =~ \"10.3.2.12\"),expr(ipv4.srcAddress.str() =~ \"10.3.2.16\"),expr(ipv4.srcAddress.str() =~ \"10.3.2.20\"),expr(ipv4.srcAddress.str() =~ \"10.3.2.24\"),expr(ipv4.srcAddress.str() =~ \"10.3.2.28\"),expr(ipv4.srcAddress.str() =~ \"10.3.2.32\"),expr(ipv4.srcAddress.str() =~ \"10.3.2.36\"),expr(ipv4.srcAddress.str() =~ \"10.3.2.40\"),expr(ipv4.srcAddress.str() =~ \"10.3.2.44\"),expr(ipv4.srcAddress.str() =~ \"10.3.2.48\"),expr(ipv4.srcAddress.str() =~ \"10.3.2.52\"),expr(ipv4.srcAddress.str() =~ \"10.3.2.56\"),expr(ipv4.srcAddress.str() =~ \"10.3.2.60\"),expr(ipv4.srcAddress.str() =~ \"10.3.2.64\"),expr(ipv4.srcAddress.str() =~ \"10.3.2.68\"),expr(ipv4.srcAddress.str() =~ \"10.3.2.72\"),expr(ipv4.srcAddress.str() =~ \"10.3.2.76\"),expr(ipv4.srcAddress.str() =~ \"10.3.2.80\"),expr(ipv4.srcAddress.str() =~ \"10.3.2.84\"),expr(ipv4.srcAddress.str() =~ \"10.3.2.88\"),expr(ipv4.srcAddress.str() =~ \"10.3.2.92\"),expr(ipv4.srcAddress.str() =~ \"10.3.2.96\"),expr(ipv4.srcAddress.str() =~ \"10.3.2.100\"),expr(ipv4.srcAddress.str() =~ \"10.3.2.104\"),expr(ipv4.srcAddress.str() =~ \"10.3.2.108\"),expr(ipv4.srcAddress.str() =~ \"10.3.2.112\"),expr(ipv4.srcAddress.str() =~ \"10.3.2.116\"),expr(ipv4.srcAddress.str() =~ \"10.3.2.120\"),expr(ipv4.srcAddress.str() =~ \"10.3.2.124\"),expr(ipv4.srcAddress.str() =~ \"10.3.2.128\"),expr(ipv4.srcAddress.str() =~ \"10.3.2.132\"),expr(ipv4.srcAddress.str() =~ \"10.3.2.136\"),expr(ipv4.srcAddress.str() =~ \"10.3.2.140\"),expr(ipv4.srcAddress.str() =~ \"10.3.2.144\"),expr(ipv4.srcAddress.str() =~ \"10.3.2.148\"),expr(ipv4.srcAddress.str() =~ \"10.3.2.152\"),expr(ipv4.srcAddress.str() =~ \"10.3.2.156\"),expr(ipv4.srcAddress.str() =~ \"10.3.2.160\"),expr(ipv4.srcAddress.str() =~ \"10.3.2.164\"),expr(ipv4.srcAddress.str() =~ \"10.3.2.168\"),expr(ipv4.srcAddress.str() =~ \"10.3.2.172\"),expr(ipv4.srcAddress.str() =~ \"10.3.2.176\"),expr(ipv4.srcAddress.str() =~ \"10.3.2.180\"),expr(ipv4.srcAddress.str() =~ \"10.3.2.184\"),expr(ipv4.srcAddress.str() =~ \"10.3.2.188\"),expr(ipv4.srcAddress.str() =~ \"10.3.2.192\"),expr(ipv4.srcAddress.str() =~ \"10.3.2.196\"),expr(ipv4.srcAddress.str() =~ \"10.3.2.200\"),expr(ipv4.srcAddress.str() =~ \"10.3.2.204\"),expr(ipv4.srcAddress.str() =~ \"10.3.2.208\"),expr(ipv4.srcAddress.str() =~ \"10.3.2.212\"),expr(ipv4.srcAddress.str() =~ \"10.3.2.216\"),expr(ipv4.srcAddress.str() =~ \"10.3.2.220\"),expr(ipv4.srcAddress.str() =~ \"10.3.2.224\"),expr(ipv4.srcAddress.str() =~ \"10.3.2.228\"),expr(ipv4.srcAddress.str() =~ \"10.3.2.232\"),expr(ipv4.srcAddress.str() =~ \"10.3.2.236\"),expr(ipv4.srcAddress.str() =~ \"10.3.2.240\"),expr(ipv4.srcAddress.str() =~ \"10.3.2.244\"),expr(ipv4.srcAddress.str() =~ \"10.3.2.248\"),expr(ipv4.srcAddress.str() =~ \"10.3.2.252\"),expr(ipv4.srcAddress.str() =~ \"10.3.3.0\"),expr(ipv4.srcAddress.str() =~ \"10.3.3.4\"),expr(ipv4.srcAddress.str() =~ \"10.3.3.8\"),expr(ipv4.srcAddress.str() =~ \"10.3.3.12\"),expr(ipv4.srcAddress.str() =~ \"10.3.3.16\"),expr(ipv4.srcAddress.str() =~ \"10.3.3.20\"),expr(ipv4.srcAddress.str() =~ \"10.3.3.24\"),expr(ipv4.srcAddress.str() =~ \"10.3.3.28\"),expr(ipv4.srcAddress.str() =~ \"10.3.3.32\"),expr(ipv4.srcAddress.str() =~ \"10.4.0.0\"),expr(ipv4.srcAddress.str() =~ \"10.4.0.4\"),expr(ipv4.srcAddress.str() =~ \"10.4.0.8\"),expr(ipv4.srcAddress.str() =~ \"10.4.0.12\"),expr(ipv4.srcAddress.str() =~ \"10.4.0.16\"),expr(ipv4.srcAddress.str() =~ \"10.4.0.20\"),expr(ipv4.srcAddress.str() =~ \"10.4.0.24\"),expr(ipv4.srcAddress.str() =~ \"10.4.0.28\"),expr(ipv4.srcAddress.str() =~ \"10.4.0.32\"),expr(ipv4.srcAddress.str() =~ \"10.4.0.36\"),expr(ipv4.srcAddress.str() =~ \"10.4.0.40\"),expr(ipv4.srcAddress.str() =~ \"10.4.0.44\"),expr(ipv4.srcAddress.str() =~ \"10.4.0.48\"),expr(ipv4.srcAddress.str() =~ \"10.4.0.52\"),expr(ipv4.srcAddress.str() =~ \"10.4.0.56\"),expr(ipv4.srcAddress.str() =~ \"10.4.0.60\"),expr(ipv4.srcAddress.str() =~ \"10.4.0.64\"),expr(ipv4.srcAddress.str() =~ \"10.4.0.68\"),expr(ipv4.srcAddress.str() =~ \"10.4.0.72\"),expr(ipv4.srcAddress.str() =~ \"10.4.0.76\"),expr(ipv4.srcAddress.str() =~ \"10.4.0.80\"),expr(ipv4.srcAddress.str() =~ \"10.4.0.84\"),expr(ipv4.srcAddress.str() =~ \"10.4.0.88\"),expr(ipv4.srcAddress.str() =~ \"10.4.0.92\"),expr(ipv4.srcAddress.str() =~ \"10.4.0.96\"),expr(ipv4.srcAddress.str() =~ \"10.4.0.100\"),expr(ipv4.srcAddress.str() =~ \"10.4.0.104\"),expr(ipv4.srcAddress.str() =~ \"10.4.0.108\"),expr(ipv4.srcAddress.str() =~ \"10.4.0.112\"),expr(ipv4.srcAddress.str() =~ \"10.4.0.116\"),expr(ipv4.srcAddress.str() =~ \"10.4.0.120\"),expr(ipv4.srcAddress.str() =~ \"10.4.0.124\"),expr(ipv4.srcAddress.str() =~ \"10.4.0.128\"),expr(ipv4.srcAddress.str() =~ \"10.4.0.132\"),expr(ipv4.srcAddress.str() =~ \"10.4.0.136\"),expr(ipv4.srcAddress.str() =~ \"10.4.0.140\"),expr(ipv4.srcAddress.str() =~ \"10.4.0.144\"),expr(ipv4.srcAddress.str() =~ \"10.4.0.148\"),expr(ipv4.srcAddress.str() =~ \"10.4.0.152\"),expr(ipv4.srcAddress.str() =~ \"10.4.0.156\"),expr(ipv4.srcAddress.str() =~ \"10.4.0.160\"),expr(ipv4.srcAddress.str() =~ \"10.4.0.164\"),expr(ipv4.srcAddress.str() =~ \"10.4.0.168\"),expr(ipv4.srcAddress.str() =~ \"10.4.0.172\"),expr(ipv4.srcAddress.str() =~ \"10.4.0.176\"),expr(ipv4.srcAddress.str() =~ \"10.4.0.180\"),expr(ipv4.srcAddress.str() =~ \"10.4.0.184\"),expr(ipv4.srcAddress.str() =~ \"10.4.0.188\"),expr(ipv4.srcAddress.str() =~ \"10.4.0.192\"),expr(ipv4.srcAddress.str() =~ \"10.4.0.196\"),expr(ipv4.srcAddress.str() =~ \"10.4.0.200\"),expr(ipv4.srcAddress.str() =~ \"10.4.0.204\"),expr(ipv4.srcAddress.str() =~ \"10.4.0.208\"),expr(ipv4.srcAddress.str() =~ \"10.4.0.212\"),expr(ipv4.srcAddress.str() =~ \"10.4.0.216\"),expr(ipv4.srcAddress.str() =~ \"10.4.0.220\"),expr(ipv4.srcAddress.str() =~ \"10.4.0.224\"),expr(ipv4.srcAddress.str() =~ \"10.4.0.228\"),expr(ipv4.srcAddress.str() =~ \"10.4.0.232\"),expr(ipv4.srcAddress.str() =~ \"10.4.0.236\"),expr(ipv4.srcAddress.str() =~ \"10.4.0.240\"),expr(ipv4.srcAddress.str() =~ \"10.4.0.244\"),expr(ipv4.srcAddress.str() =~ \"10.4.0.248\"),expr(ipv4.srcAddress.str() =~ \"10.4.0.252\"),expr(ipv4.srcAddress.str() =~ \"10.4.1.0\"),expr(ipv4.srcAddress.str() =~ \"10.4.1.4\"),expr(ipv4.srcAddress.str() =~ \"10.4.1.8\"),expr(ipv4.srcAddress.str() =~ \"10.4.1.12\"),expr(ipv4.srcAddress.str() =~ \"10.4.1.16\"),expr(ipv4.srcAddress.str() =~ \"10.4.1.20\"),expr(ipv4.srcAddress.str() =~ \"10.4.1.24\"),expr(ipv4.srcAddress.str() =~ \"10.4.1.28\"),expr(ipv4.srcAddress.str() =~ \"10.4.1.32\"),expr(ipv4.srcAddress.str() =~ \"10.4.1.36\"),expr(ipv4.srcAddress.str() =~ \"10.4.1.40\"),expr(ipv4.srcAddress.str() =~ \"10.4.1.44\"),expr(ipv4.srcAddress.str() =~ \"10.4.1.48\"),expr(ipv4.srcAddress.str() =~ \"10.4.1.52\"),expr(ipv4.srcAddress.str() =~ \"10.4.1.56\"),expr(ipv4.srcAddress.str() =~ \"10.4.1.60\"),expr(ipv4.srcAddress.str() =~ \"10.4.1.64\"),expr(ipv4.srcAddress.str() =~ \"10.4.1.68\"),expr(ipv4.srcAddress.str() =~ \"10.4.1.72\"),expr(ipv4.srcAddress.str() =~ \"10.4.1.76\"),expr(ipv4.srcAddress.str() =~ \"10.4.1.80\"),expr(ipv4.srcAddress.str() =~ \"10.4.1.84\"),expr(ipv4.srcAddress.str() =~ \"10.4.1.88\"),expr(ipv4.srcAddress.str() =~ \"10.4.1.92\"),expr(ipv4.srcAddress.str() =~ \"10.4.1.96\"),expr(ipv4.srcAddress.str() =~ \"10.4.1.100\"),expr(ipv4.srcAddress.str() =~ \"10.4.1.104\"),expr(ipv4.srcAddress.str() =~ \"10.4.1.108\"),expr(ipv4.srcAddress.str() =~ \"10.4.1.112\"),expr(ipv4.srcAddress.str() =~ \"10.4.1.116\"),expr(ipv4.srcAddress.str() =~ \"10.4.1.120\"),expr(ipv4.srcAddress.str() =~ \"10.4.1.124\"),expr(ipv4.srcAddress.str() =~ \"10.4.1.128\"),expr(ipv4.srcAddress.str() =~ \"10.4.1.132\"),expr(ipv4.srcAddress.str() =~ \"10.4.1.136\"),expr(ipv4.srcAddress.str() =~ \"10.4.1.140\"),expr(ipv4.srcAddress.str() =~ \"10.1.0.0\"),expr(ipv4.srcAddress.str() =~ \"10.1.0.4\"),expr(ipv4.srcAddress.str() =~ \"10.1.0.8\"),expr(ipv4.srcAddress.str() =~ \"10.1.0.12\"),expr(ipv4.srcAddress.str() =~ \"10.1.0.16\"),expr(ipv4.srcAddress.str() =~ \"10.1.0.20\"),expr(ipv4.srcAddress.str() =~ \"10.1.0.24\"),expr(ipv4.srcAddress.str() =~ \"10.1.0.28\"),expr(ipv4.srcAddress.str() =~ \"10.1.0.32\"),expr(ipv4.srcAddress.str() =~ \"10.1.0.36\"),expr(ipv4.srcAddress.str() =~ \"10.1.0.40\"),expr(ipv4.srcAddress.str() =~ \"10.1.0.44\"),expr(ipv4.srcAddress.str() =~ \"10.1.0.48\"),expr(ipv4.srcAddress.str() =~ \"10.1.0.52\"),expr(ipv4.srcAddress.str() =~ \"10.1.0.56\"),expr(ipv4.srcAddress.str() =~ \"10.1.0.60\"),expr(ipv4.srcAddress.str() =~ \"10.1.0.64\"),expr(ipv4.srcAddress.str() =~ \"10.1.0.68\"),expr(ipv4.srcAddress.str() =~ \"10.1.0.72\"),expr(ipv4.srcAddress.str() =~ \"10.1.0.76\"),expr(ipv4.srcAddress.str() =~ \"10.1.0.80\"),expr(ipv4.srcAddress.str() =~ \"10.1.0.84\"),expr(ipv4.srcAddress.str() =~ \"10.1.0.88\"),expr(ipv4.srcAddress.str() =~ \"10.1.0.92\"),expr(ipv4.srcAddress.str() =~ \"10.1.0.96\"),expr(ipv4.srcAddress.str() =~ \"10.1.0.100\"),expr(ipv4.srcAddress.str() =~ \"10.1.0.104\"),expr(ipv4.srcAddress.str() =~ \"10.1.0.108\"),expr(ipv4.srcAddress.str() =~ \"10.1.0.112\"),expr(ipv4.srcAddress.str() =~ \"10.1.0.116\"),expr(ipv4.srcAddress.str() =~ \"10.1.0.120\"),expr(ipv4.srcAddress.str() =~ \"10.1.0.124\"),expr(ipv4.srcAddress.str() =~ \"10.1.0.128\"),expr(ipv4.srcAddress.str() =~ \"10.2.0.0\"),expr(ipv4.srcAddress.str() =~ \"10.2.0.4\"),expr(ipv4.srcAddress.str() =~ \"10.2.0.8\"),expr(ipv4.srcAddress.str() =~ \"10.2.0.12\"),expr(ipv4.srcAddress.str() =~ \"10.2.0.16\"),expr(ipv4.srcAddress.str() =~ \"10.2.0.20\"),expr(ipv4.srcAddress.str() =~ \"10.2.0.24\"),expr(ipv4.srcAddress.str() =~ \"10.2.0.28\"),expr(ipv4.srcAddress.str() =~ \"10.2.0.32\"),expr(ipv4.srcAddress.str() =~ \"10.2.0.36\"),expr(ipv4.srcAddress.str() =~ \"10.2.0.40\"),expr(ipv4.srcAddress.str() =~ \"10.2.0.44\"),expr(ipv4.srcAddress.str() =~ \"10.2.0.48\"),expr(ipv4.srcAddress.str() =~ \"10.2.0.52\"),expr(ipv4.srcAddress.str() =~ \"10.2.0.56\"),expr(ipv4.srcAddress.str() =~ \"10.2.0.60\"),expr(ipv4.srcAddress.str() =~ \"10.2.0.64\"),expr(ipv4.srcAddress.str() =~ \"10.2.0.68\"),expr(ipv4.srcAddress.str() =~ \"10.2.0.72\"),expr(ipv4.srcAddress.str() =~ \"10.2.0.76\"),expr(ipv4.srcAddress.str() =~ \"10.2.0.80\"),expr(ipv4.srcAddress.str() =~ \"10.2.0.84\"),expr(ipv4.srcAddress.str() =~ \"10.2.0.88\"),expr(ipv4.srcAddress.str() =~ \"10.2.0.92\"),expr(ipv4.srcAddress.str() =~ \"10.2.0.96\"),expr(ipv4.srcAddress.str() =~ \"10.2.0.100\"),expr(ipv4.srcAddress.str() =~ \"10.2.0.104\"),expr(ipv4.srcAddress.str() =~ \"10.2.0.108\"),expr(ipv4.srcAddress.str() =~ \"10.2.0.112\"),expr(ipv4.srcAddress.str() =~ \"10.2.0.116\"),expr(ipv4.srcAddress.str() =~ \"10.2.0.120\"),expr(ipv4.srcAddress.str() =~ \"10.2.0.124\"),expr(ipv4.srcAddress.str() =~ \"10.2.0.128\"),expr(ipv4.srcAddress.str() =~ \"10.2.0.132\"),expr(ipv4.srcAddress.str() =~ \"10.2.0.136\"),expr(ipv4.srcAddress.str() =~ \"10.2.0.140\"),expr(ipv4.srcAddress.str() =~ \"10.2.0.144\"),expr(ipv4.srcAddress.str() =~ \"10.2.0.148\"),expr(ipv4.srcAddress.str() =~ \"10.2.0.152\"),expr(ipv4.srcAddress.str() =~ \"10.2.0.156\"),expr(ipv4.srcAddress.str() =~ \"10.2.0.160\"),expr(ipv4.srcAddress.str() =~ \"10.2.0.164\"),expr(ipv4.srcAddress.str() =~ \"10.2.0.168\"),expr(ipv4.srcAddress.str() =~ \"10.2.0.172\"),expr(ipv4.srcAddress.str() =~ \"10.2.0.176\"),expr(ipv4.srcAddress.str() =~ \"10.2.0.180\"),expr(ipv4.srcAddress.str() =~ \"10.2.0.184\"),expr(ipv4.srcAddress.str() =~ \"10.2.0.188\"),expr(ipv4.srcAddress.str() =~ \"10.2.0.192\"),expr(ipv4.srcAddress.str() =~ \"10.2.0.196\"),expr(ipv4.srcAddress.str() =~ \"10.2.0.200\"),expr(ipv4.srcAddress.str() =~ \"10.2.0.204\"),expr(ipv4.srcAddress.str() =~ \"10.2.0.208\"),expr(ipv4.srcAddress.str() =~ \"10.2.0.212\"),expr(ipv4.srcAddress.str() =~ \"10.2.0.216\"),expr(ipv4.srcAddress.str() =~ \"10.2.0.220\"),expr(ipv4.srcAddress.str() =~ \"10.2.0.224\"),expr(ipv4.srcAddress.str() =~ \"10.2.0.228\"),expr(ipv4.srcAddress.str() =~ \"10.2.0.232\"),expr(ipv4.srcAddress.str() =~ \"10.2.0.236\"),expr(ipv4.srcAddress.str() =~ \"10.2.0.240\"),expr(ipv4.srcAddress.str() =~ \"10.2.0.244\"),expr(ipv4.srcAddress.str() =~ \"10.2.0.248\"),expr(ipv4.srcAddress.str() =~ \"10.2.0.252\"),expr(ipv4.srcAddress.str() =~ \"10.2.1.0\"),expr(ipv4.srcAddress.str() =~ \"10.2.1.4\"),expr(ipv4.srcAddress.str() =~ \"10.2.1.8\"),expr(ipv4.srcAddress.str() =~ \"10.2.1.12\"),expr(ipv4.srcAddress.str() =~ \"10.2.1.16\"),expr(ipv4.srcAddress.str() =~ \"10.2.1.20\"),expr(ipv4.srcAddress.str() =~ \"10.2.1.24\"),expr(ipv4.srcAddress.str() =~ \"10.2.1.28\"),expr(ipv4.srcAddress.str() =~ \"10.2.1.32\"),expr(ipv4.srcAddress.str() =~ \"10.2.1.36\"),expr(ipv4.srcAddress.str() =~ \"10.2.1.40\"),expr(ipv4.srcAddress.str() =~ \"10.2.1.44\"),expr(ipv4.srcAddress.str() =~ \"10.2.1.48\"),expr(ipv4.srcAddress.str() =~ \"10.2.1.52\"),expr(ipv4.srcAddress.str() =~ \"10.2.1.56\"),expr(ipv4.srcAddress.str() =~ \"10.2.1.60\"),expr(ipv4.srcAddress.str() =~ \"10.2.1.64\"),expr(ipv4.srcAddress.str() =~ \"10.2.1.68\"),expr(ipv4.srcAddress.str() =~ \"10.2.1.72\"),expr(ipv4.srcAddress.str() =~ \"10.2.1.76\"),expr(ipv4.srcAddress.str() =~ \"10.2.1.80\"),expr(ipv4.srcAddress.str() =~ \"10.2.1.84\"),expr(ipv4.srcAddress.str() =~ \"10.2.1.88\"),expr(ipv4.srcAddress.str() =~ \"10.2.1.92\"),expr(ipv4.srcAddress.str() =~ \"10.2.1.96\"),expr(ipv4.srcAddress.str() =~ \"10.2.1.100\"),expr(ipv4.srcAddress.str() =~ \"10.2.1.104\"),expr(ipv4.srcAddress.str() =~ \"10.2.1.108\"),expr(ipv4.srcAddress.str() =~ \"10.2.1.112\"),expr(ipv4.srcAddress.str() =~ \"10.2.1.116\"),expr(ipv4.srcAddress.str() =~ \"10.2.1.120\"),expr(ipv4.srcAddress.str() =~ \"10.2.1.124\"),expr(ipv4.srcAddress.str() =~ \"10.2.1.128\"),expr(ipv4.srcAddress.str() =~ \"10.2.1.132\"),expr(ipv4.srcAddress.str() =~ \"10.2.1.136\"),expr(ipv4.srcAddress.str() =~ \"10.2.1.140\"),expr(ipv4.srcAddress.str() =~ \"10.2.1.144\"),expr(ipv4.srcAddress.str() =~ \"10.2.1.148\"),expr(ipv4.srcAddress.str() =~ \"10.2.1.152\"),expr(ipv4.srcAddress.str() =~ \"10.2.1.156\"),expr(ipv4.srcAddress.str() =~ \"10.2.1.160\"),expr(ipv4.srcAddress.str() =~ \"10.2.1.164\"),expr(ipv4.srcAddress.str() =~ \"10.2.1.168\"),expr(ipv4.srcAddress.str() =~ \"10.2.1.172\"),expr(ipv4.srcAddress.str() =~ \"10.2.1.176\"),expr(ipv4.srcAddress.str() =~ \"10.2.1.180\"),expr(ipv4.srcAddress.str() =~ \"10.2.1.184\"),expr(ipv4.srcAddress.str() =~ \"10.2.1.188\"),expr(ipv4.srcAddress.str() =~ \"10.2.1.192\"),expr(ipv4.srcAddress.str() =~ \"10.2.1.196\"),expr(ipv4.srcAddress.str() =~ \"10.2.1.200\"),expr(ipv4.srcAddress.str() =~ \"10.2.1.204\"),expr(ipv4.srcAddress.str() =~ \"10.2.1.208\"),expr(ipv4.srcAddress.str() =~ \"10.2.1.212\"),expr(ipv4.srcAddress.str() =~ \"10.2.1.216\"),expr(ipv4.srcAddress.str() =~ \"10.2.1.220\"),expr(ipv4.srcAddress.str() =~ \"10.2.1.224\"),expr(ipv4.srcAddress.str() =~ \"10.2.1.228\"),expr(ipv4.srcAddress.str() =~ \"10.2.1.232\"),expr(ipv4.srcAddress.str() =~ \"10.2.1.236\"),expr(ipv4.srcAddress.str() =~ \"10.2.1.240\"),expr(ipv4.srcAddress.str() =~ \"10.2.1.244\"),expr(ipv4.srcAddress.str() =~ \"10.2.1.248\"),expr(ipv4.srcAddress.str() =~ \"10.2.1.252\"),expr(ipv4.srcAddress.str() =~ \"10.2.2.0\"),expr(ipv4.srcAddress.str() =~ \"10.2.2.4\"),expr(ipv4.srcAddress.str() =~ \"10.0.0.0\"),expr(ipv4.srcAddress.str() =~ \"10.0.0.4\"),expr(ipv4.srcAddress.str() =~ \"10.0.0.8\"),expr(ipv4.srcAddress.str() =~ \"10.0.0.12\"),expr(ipv4.srcAddress.str() =~ \"10.0.0.16\"),expr(ipv4.srcAddress.str() =~ \"10.0.0.20\"),expr(ipv4.srcAddress.str() =~ \"10.0.0.24\"),expr(ipv4.srcAddress.str() =~ \"10.0.0.28\"),expr(ipv4.srcAddress.str() =~ \"10.0.0.32\"),expr(ipv4.srcAddress.str() =~ \"10.0.0.36\"),expr(ipv4.srcAddress.str() =~ \"10.0.0.40\"),expr(ipv4.srcAddress.str() =~ \"10.0.0.44\"),expr(ipv4.srcAddress.str() =~ \"10.0.0.48\"),expr(ipv4.srcAddress.str() =~ \"10.0.0.52\"),expr(ipv4.srcAddress.str() =~ \"10.0.0.56\"),expr(ipv4.srcAddress.str() =~ \"10.0.0.60\"),expr(ipv4.srcAddress.str() =~ \"10.0.0.64\"),expr(ipv4.srcAddress.str() =~ \"10.0.0.68\"),expr(ipv4.srcAddress.str() =~ \"10.0.0.72\"),expr(ipv4.srcAddress.str() =~ \"10.0.0.76\"),expr(ipv4.srcAddress.str() =~ \"10.0.0.80\"),expr(ipv4.srcAddress.str() =~ \"10.0.0.84\"),expr(ipv4.srcAddress.str() =~ \"10.0.0.88\"),expr(ipv4.srcAddress.str() =~ \"10.0.0.92\"),expr(ipv4.srcAddress.str() =~ \"10.0.0.96\"),expr(ipv4.srcAddress.str() =~ \"10.0.0.100\"),expr(ipv4.srcAddress.str() =~ \"10.0.0.104\"),expr(ipv4.srcAddress.str() =~ \"10.0.0.108\"),expr(ipv4.srcAddress.str() =~ \"10.0.0.112\"),expr(ipv4.srcAddress.str() =~ \"10.0.0.116\"),expr(ipv4.srcAddress.str() =~ \"10.0.0.120\"),expr(ipv4.srcAddress.str() =~ \"10.0.0.124\"),expr(ipv4.srcAddress.str() =~ \"10.0.0.128\"),expr(ipv4.srcAddress.str() =~ \"10.0.0.132\"),expr(ipv4.srcAddress.str() =~ \"10.0.0.136\"),expr(ipv4.srcAddress.str() =~ \"10.0.0.140\"),expr(ipv4.srcAddress.str() =~ \"10.0.0.144\"),expr(ipv4.srcAddress.str() =~ \"10.0.0.148\"),expr(ipv4.srcAddress.str() =~ \"10.0.0.152\"),expr(ipv4.srcAddress.str() =~ \"10.0.0.156\"),expr(ipv4.srcAddress.str() =~ \"10.0.0.160\"),expr(ipv4.srcAddress.str() =~ \"10.0.0.164\"),expr(ipv4.srcAddress.str() =~ \"10.0.0.168\"),expr(ipv4.srcAddress.str() =~ \"10.0.0.172\"),expr(ipv4.srcAddress.str() =~ \"10.0.0.176\"),expr(ipv4.srcAddress.str() =~ \"10.0.0.180\"),expr(ipv4.srcAddress.str() =~ \"10.0.0.184\"),expr(ipv4.srcAddress.str() =~ \"10.0.0.188\"),expr(ipv4.srcAddress.str() =~ \"10.0.0.192\"),expr(ipv4.srcAddress.str() =~ \"10.0.0.196\"),expr(ipv4.srcAddress.str() =~ \"10.0.0.200\"),expr(ipv4.srcAddress.str() =~ \"10.0.0.204\"),expr(ipv4.srcAddress.str() =~ \"10.0.0.208\"),expr(ipv4.srcAddress.str() =~ \"10.0.0.212\"),expr(ipv4.srcAddress.str() =~ \"10.0.0.216\"),expr(ipv4.srcAddress.str() =~ \"10.0.0.220\"),expr(ipv4.srcAddress.str() =~ \"10.0.0.224\"),expr(ipv4.srcAddress.str() =~ \"10.0.0.228\"),expr(ipv4.srcAddress.str() =~ \"10.0.0.232\"),expr(ipv4.srcAddress.str() =~ \"10.0.0.236\"),expr(ipv4.srcAddress.str() =~ \"10.0.0.240\"),expr(ipv4.srcAddress.str() =~ \"10.0.0.244\"),expr(ipv4.srcAddress.str() =~ \"10.0.0.248\"),expr(ipv4.srcAddress.str() =~ \"10.0.0.252\"),expr(ipv4.srcAddress.str() =~ \"10.0.1.0\"),expr(ipv4.srcAddress.str() =~ \"10.0.1.4\"),expr(ipv4.srcAddress.str() =~ \"10.0.1.8\"),expr(ipv4.srcAddress.str() =~ \"10.0.1.12\"),expr(ipv4.srcAddress.str() =~ \"10.0.1.16\"),expr(ipv4.srcAddress.str() =~ \"10.0.1.20\"),expr(ipv4.srcAddress.str() =~ \"10.0.1.24\"),expr(ipv4.srcAddress.str() =~ \"10.0.1.28\"),expr(ipv4.srcAddress.str() =~ \"10.0.1.32\"),expr(ipv4.srcAddress.str() =~ \"10.0.1.36\"),expr(ipv4.srcAddress.str() =~ \"10.0.1.40\"),expr(ipv4.srcAddress.str() =~ \"10.0.1.44\"),expr(ipv4.srcAddress.str() =~ \"10.0.1.48\"),expr(ipv4.srcAddress.str() =~ \"10.0.1.52\"),expr(ipv4.srcAddress.str() =~ \"10.0.1.56\"),expr(ipv4.srcAddress.str() =~ \"10.0.1.60\"),expr(ipv4.srcAddress.str() =~ \"10.0.1.64\"),expr(ipv4.srcAddress.str() =~ \"10.0.1.68\"),expr(ipv4.srcAddress.str() =~ \"10.0.1.72\"),expr(ipv4.srcAddress.str() =~ \"10.0.1.76\")]"
[...]
5009	5517823 84 179929 338268 2.563979587422 4.657266105677 2 1.432158684222 2.093286518255 3.525445202477 6.4329269443006
5010	5517907 82 179977 338401 2.564490307422 4.6608027336 2 1.432465324222 2.096312426178 3.5287777504 6.4464826932467
5011	5517989 81 180020 338460 2.564832707422 4.664338348 2 1.432800764222 2.099505640578 3.5323064048 6.460841964774
5012	5518070 80 180040 355117 2.5651930248 4.807091774422 2 1.4658086872 2.241898749622 3.707707436822 7.1747051110277
5013	5518150 59 180082 355295 2.5654003048 4.807373678422 2 40 888 928 790144
5014	5518209 458 180082 355295 2.5654003048 4.807373678422 11 1.4260042816 2.174562970778 23.17163398938 49.32072934993
5015	5518667 82 180095 338633 2.565411747422 4.667878052022 2 1.433078604222 2.1024663046 3.535544908822 6.4740788478573
5016	5518749 80 180113 357274 2.5657037448 4.810570334422 2 1.4662153272 2.244866589622 3.711081916822 7.1892133909173
5017	5518829 59 180155 357437 2.5659110248 4.810852238422 2 40 888 928 790144
5018	5518888 458 180155 357437 2.5659110248 4.810852238422 11 1.4263146816 2.176202010778 23.18833478938 49.39292548809
5019	5519346 79 180175 358079 2.5662197136 4.814073828077 2 1.466527216 2.247854114477 3.714381330477 7.2035501952399
5020	5519425 59 180191 358098 2.5663269936 4.814361732077 2 40 888 928 790144
5021	5519484 458 180191 358098 2.5663269936 4.814361732077 11 1.4265265704 2.177987009455 23.20639666495 49.471252189605
5022	5519942 79 180210 358251 2.5666304336 4.817624951103 2 1.466733856 2.250994517503 3.717728373503 7.2182845221652
5023	5520021 82 180223 338844 2.566639827422 4.671360620822 2 1.434102604222 2.1047207934 3.538823397622 6.4864998976066
5024	5520103 59 180240 358268 2.5668377136 4.817806855103 2 40 888 928 790144
5025	5520162 458 180240 358268 2.5668377136 4.817806855103 11 1.4268332104 2.179692612481 23.22375933521 49.546451859343
5026	5520620 78 180283 358513 2.5671411536 4.82107556666 2 1.4671364056 2.25393441306 3.72107081866 7.232709571013
5027	5520698 58 180301 358533 2.5673484336 4.82135747066 2 40 888 928 790144
5028	5520756 446 180301 358533 2.5673484336 4.82135747066 11 1.42723576 2.181503708038 23.24227284038 49.626586196458
5029	5521202 77 180320 358599 2.5676518736 4.82465412666 2 1.467447136 2.25700225306 3.72444938906 7.2474602672725
5030	5521279 58 180337 358609 2.5677591536 4.82483603066 2 40 888 928 790144
5031	5521337 438 180337 358609 2.5677591536 4.82483603066 11 1.4274464904 2.18315134506 23.258959941 49.699101437328
5032	5521775 79 180356 358692 2.5680625936 4.828091774422 2 1.467653776 2.260029180822 3.727682956822 7.261739504374
5033	5521854 59 180374 358703 2.5682698736 4.828373678422 2 40 888 928 790144
5034	5521913 458 180374 358703 2.5682698736 4.828373678422 11 1.4277531304 2.184949472822 23.27724785862 49.778520989218
5035	5522371 84 180391 338929 2.568476067422 4.674866105677 2 1.435734764222 2.106390038255 3.542124802477 6.4982133064555
5036	5522455 79 180406 358771 2.5685733136 4.831670334422 2 1.467960416 2.263097020822 3.731057436822 7.2765159085963
5037	5522534 59 180448 358781 2.5687805936 4.831852238422 2 40 888 928 790144
5038	5522593 458 180448 358781 2.5687805936 4.831852238422 11 1.4280597704 2.186688512822 23.29494489862 49.855421228912
5039	5523051 79 180467 358847 2.5690840336 4.835179828077 2 1.468267056 2.266095794477 3.734362850477 7.2909982974813
5040	5523130 61 180492 358856 2.569192958044 4.835361732077 2 40 888 928 790144
5041	5523191 462 180492 358856 2.569192958044 4.835361732077 11 1.428268054844 2.188438421455 23.312652269394 49.932576881492
5042	5523653 84 180520 358924 2.569502398044 4.838658388077 2 1.468481340444 2.269155990033 3.737637330477 7.3055063543349
5043	5523737 61 180538 358935 2.569709678044 4.838940292077 2 40 888 928 790144
5044	5523798 462 180538 358935 2.569709678044 4.838940292077 11 1.428580694844 2.190177461455 23.330355309394 50.009615928336
5045	5524260 83 180557 359068 2.570013118044 4.84217556666 2 1.468887980444 2.272162448616 3.74105042906 7.3203540919935
5046	5524343 60 180575 359078 2.570220398044 4.84235747066 2 40 888 928 790144
5047	5524403 452 180575 359078 2.570220398044 4.84235747066 11 1.428884454844 2.191855120038 23.347435655224 50.083999457663
5048	5524855 82 180588 338973 2.570245267644 4.678373737244 2 1.437497004444 2.1081284696 3.545625474044 6.5106032821235
5049	5524937 80 180630 359380 2.570523838044 4.84563264 2 1.469194620444 2.275108801956 3.7443034224 7.3346528934793
5050	5525017 57 180655 359463 2.57064259978 4.845878224 2 40 888 928 790144
5051	5525074 420 180655 359463 2.57064259978 4.845878224 11 1.42900137658 2.19366491462 23.36565052278 50.163702510615
5052	5525494 77 180682 361491 2.57095203978 4.84915544 2 1.46941874218 2.27820340022 3.7476221424 7.3494021726438
5053	5525571 57 180700 361561 2.57115931978 4.849394624 2 40 888 928 790144
5054	5525628 420 180700 361561 2.57115931978 4.849394624 11 1.42921401658 2.19534179462 23.38263196278 50.237908657242
5055	5526048 75 180719 363060 2.5714296064 4.852853104 2 1.4696922288 2.2814234976 3.7511157264 7.3648884227965
5056	5526123 56 180737 363079 2.5716368864 4.852935008 2 40 888 928 790144
5057	5526179 418 180737 363079 2.5716368864 4.852935008 11 1.4293834232 2.19714265862 23.4008100094 50.317495593797
5058	5526597 75 180756 363588 2.5719403264 4.856295424 2 1.4699988688 2.2843550976 3.7543539664 7.3791748862044
5059	5526672 84 180770 339098 2.571984787644 4.681880899919 2 1.438935324444 2.109896112275 3.548831436719 6.5221964725259
5060	5526756 56 180785 363642 2.5720476064 4.856617168 2 40 888 928 790144
5061	5526812 428 180785 363642 2.5720476064 4.856617168 11 1.4294859832 2.199112722178 23.42061320498 50.404397824617
5062	5527240 75 180828 364134 2.5723510464 4.859857664 2 1.4703055088 2.2875066176 3.7578121264 7.3944848147714
5063	5527315 56 180846 364153 2.5725583264 4.859939568 2 40 888 928 790144
5064	5527371 428 180846 364153 2.5725583264 4.859939568 11 1.4296885432 2.200595602178 23.43564456498 50.470219373809
5065	5527799 75 180865 364642 2.5728617664 4.863232304 2 1.4706121488 2.2903705376 3.7609826864 7.4084972917043
5066	5527874 56 180884 364652 2.5730690464 4.863414208 2 40 888 928 790144
5067	5527930 428 180884 364652 2.5730690464 4.863414208 11 1.4298951832 2.202330722178 23.45320240498 50.547206333429
5068	5528358 80 180903 364789 2.5733724864 4.866730658422 2 1.4709187888 2.293358172022 3.764276960822 7.4230937884249
5069	5528438 59 180919 364807 2.5734797664 4.866912562422 2 40 888 928 790144
5070	5528497 438 180919 364807 2.5734797664 4.866912562422 11 1.4299977432 2.2040480526 23.4704782692 50.623171727256
5071	5528935 84 180937 339296 2.573724307644 4.685378052022 2 1.440470764444 2.111653744378 3.552124508822 6.5340375593635
5072	5529019 80 180951 364988 2.5737832064 4.870209218422 2 1.4711254288 2.296426012022 3.767551440822 7.4377824559533
5073	5529099 59 180993 365010 2.5739904864 4.870491122422 2 40 888 928 790144
5074	5529158 438 180993 365010 2.5739904864 4.870491122422 11 1.4302003032 2.2058870926 23.4890712292 50.704851560266
5075	5529596 80 181012 365119 2.5742939264 4.873750578422 2 1.4715320688 2.299456652022 3.770988720822 7.452907524035
5076	5529676 61 181039 365129 2.574504013022 4.873932482422 2 40 888 928 790144
5077	5529737 442 181039 365129 2.574504013022 4.873932482422 11 1.430409749822 2.2075889326 23.506299075822 50.780561005766
5078	5530179 84 181067 365200 2.574813453022 4.877218712077 2 1.471847515422 2.302405259055 3.774252774477 7.467405085578
5079	5530263 61 181083 365211 2.574920733022 4.877500616077 2 40 888 928 790144
5080	5530324 462 181083 365211 2.574920733022 4.877500616077 11 1.430518309822 2.209422826255 23.524746572372 50.861874886502
5081	5530786 83 181102 365332 2.575224173022 4.88077556666 2 1.472054155422 2.305551393638 3.77760554906 7.4825106652013
5082	5530869 60 181120 365341 2.575431453022 4.88095747066 2 40 888 928 790144
5083	5530929 450 181120 365341 2.575431453022 4.88095747066 11 1.4306797256 2.211040160838 23.54108133398 50.933830405628
5084	5531379 82 181133 341348 2.575495762622 4.688848620822 2 1.442038139422 2.1133528582 3.555390997622 6.5457342988098
5085	5531461 84 181175 365396 2.575734893022 4.884240831643 2 1.472360795422 2.308505938621 3.780866734043 7.4970459805441
5086	5531545 61 181193 365407 2.575942173022 4.884522735643 2 40 888 928 790144
5087	5531606 460 181193 365407 2.575942173022 4.884522735643 11 1.4308834856 2.212865905821 23.55954254381 51.015182720813
5088	5532066 82 181212 366909 2.576245613022 4.887791774422 2 1.472667435422 2.3115461614 3.784213596822 7.5119950316355
5089	5532148 61 181228 367039 2.576352893022 4.887973678422 2 40 888 928 790144
5090	5532209 460 181228 367039 2.576352893022 4.887973678422 11 1.4309872456 2.214590581842 23.57689306402 51.091838948903
5091	5532669 82 181249 369045 2.576745377022 4.891270334422 2 1.473063119422 2.3145249574 3.787588076822 7.5269407322287
5092	5532751 61 181266 369175 2.576852657022 4.891552238422 2 40 888 928 790144
5093	5532812 460 181266 369175 2.576852657022 4.891552238422 11 1.4311800496 2.216329621842 23.59447626802 51.169446260916
5094	5533272 84 181285 369755 2.577156097022 4.894779828077 2 1.473269759422 2.317623731055 3.790893490477 7.5419035427767
5095	5533356 84 181298 343040 2.577235282622 4.692359483644 2 1.443573579422 2.115124201022 3.558697780444 6.5576550649542
5096	5533440 61 181315 369803 2.577363377022 4.895061732077 2 40 888 928 790144
5097	5533501 460 181315 369803 2.577363377022 4.895061732077 11 1.4313838096 2.218099595497 23.61237976457 51.248517765825
5098	5533961 84 181357 370345 2.577666817022 4.898258388077 2 1.473576399422 2.320591571055 3.794167970477 7.556572644585
5099	5534045 30 181376 181376 2.577874097022 2.577874097022 1 40 40 40 1600
5100	5534075 40 181376 181376 2.577874097022 2.577874097022 1 1.4315875696 1.4315875696 1.4315875696 2.0494429694332
5101	5534115 42 181395 181395 2.578177537022 2.578177537022 1 1.473883039422 1.473883039422 1.473883039422 2.1723312138958
5102	5534157 30 181412 181412 2.578284817022 2.578284817022 1 40 40 40 1600
5103	5534187 40 181412 181412 2.578284817022 2.578284817022 1 1.4316913296 1.4316913296 1.4316913296 2.0497400632518
5104	5534227 84 181431 370412 2.578588257022 4.898540292077 2 1.474189679422 2.319952035055 3.794141714477 7.5554126558702
5105	5534311 61 181449 370413 2.578795537022 4.898540292077 2 40 888 928 790144
5106	5534372 460 181449 370413 2.578795537022 4.898540292077 11 1.4318950896 2.216280406255 23.59469915215 51.169311939119
5107	5534832 84 181467 343154 2.579074802622 4.695866105677 2 1.445406139422 2.116791303055 3.562197442477 6.5700043285681
5108	5534916 84 181585 343237 2.580759666622 4.699428803119 2 1.446789803422 2.118669136497 3.565458939919 6.5819596452308
5109	5535000 82 181702 344160 2.582898626622 4.7243570704 2 1.448820923422 2.141458443778 3.5902793672 6.6849263345735
5110	5535082 82 181790 345674 2.584717346622 4.7277138016 2 1.450339323422 2.142996454978 3.5933357784 6.6959179591125
5111	5535164 82 181863 347947 2.586469106622 4.7312303352 2 1.451887003422 2.144761228578 3.596648232 6.7079765983171
5112	5535246 84 181935 348337 2.588205346622 4.734866105677 2 1.453616283422 2.146660759055 3.600277042477 6.7211527138962
5113	5535330 84 182027 348403 2.589913731644 4.738344665677 2 1.455023468444 2.148430934033 3.603454402477 6.7328487720327
5114	5535414 80 182129 348536 2.59177409338 4.74186184426 2 1.45667975018 2.15008775088 3.60676750106 6.7447932310687
5115	5535494 82 182203 348619 2.59351033338 4.745378052022 2 1.45821191018 2.151867718642 3.610079628822 6.7569166535243
5116	5535576 82 182294 348684 2.595232642622 4.748856612022 2 1.459927259422 2.1536239694 3.613551228822 6.7694838043776
5117	5535658 84 182377 348749 2.596972162622 4.752381715644 2 1.461365579422 2.155409553022 3.616775132444 6.7813796979779
5118	5535742 84 182451 348838 2.598811682622 4.755866105677 2 1.463001019422 2.157054423055 3.620055442477 6.793255766851
5119	5535826 84 182557 348920 2.600549294622 4.759432563119 2 1.464534551422 2.158883268497 3.623417819919 6.8056384193051
5120	5535910 83 182644 349034 2.602288814622 4.76286184426 2 1.466069991422 2.160573029638 3.62664302106 6.8174370361472
5121	5535993 82 182716 349818 2.604028334622 4.766378052022 2 1.467802551422 2.1623497174 3.630152268822 6.8302006303008
5122	5536075 80 182789 351993 2.6058113184 4.769881715644 2 1.4692843352 2.164070397244 3.633354732444 6.8419971418919
5123	5536155 79 182878 353246 2.6076528072 4.773460275644 2 1.470921744 2.165807468444 3.636729212444 6.8543327673398
5124	5536234 84 182967 353335 2.609397331644 4.776966105677 2 1.472462188444 2.167568774033 3.640030962477 6.8664992865602
5125	5536318 80 183057 353467 2.61115961338 4.78046184426 2 1.47421751018 2.16930223088 3.64351974106 6.8791894362223
5126	5536398 73 183142 353533 2.6128627 4.7839193856 2 1.4756193968 2.1710566856 3.6466760824 6.8909397363009
5127	5536471 82 183233 353609 2.614708386622 4.787478052022 2 1.477261003422 2.1727696654 3.650030668822 6.9032280911138
5128	5536553 82 183306 353653 2.616457266622 4.790994704022 2 1.478805803422 2.1745374374 3.653343240822 6.9154796708887
5129	5536635 84 183391 353728 2.618178470622 4.794466105677 2 1.480322927422 2.176287635055 3.656610562477 6.9275838399445
5130	5536719 84 183463 353787 2.619931126622 4.797944665677 2 1.482068623422 2.178013539055 3.660082162477 6.9402703808389
5131	5536803 83 183569 353897 2.621670646622 4.80146184426 2 1.483506943422 2.179791197638 3.66329814106 6.9522825164814
5132	5536886 83 183658 353964 2.623510166622 4.80494040426 2 1.485142383422 2.181430237638 3.66657262106 6.9642857807178
5133	5536969 82 183731 355888 2.625293674622 4.8083577384 2 1.486721811422 2.183064063778 3.6697858752 6.9761104511168
5134	5537051 82 183804 358011 2.627033194622 4.8118648264 2 1.488454371422 2.184831631778 3.6732860032 6.988985675023
5135	5537133 84 183890 358139 2.628772714622 4.815466105677 2 1.489892691422 2.186693391055 3.676586082477 7.0014082184363
5136	5537217 84 183980 358352 2.630527587644 4.819044665677 2 1.491443484444 2.188517078033 3.679960562477 7.0140106681326
5137	5537301 83 184070 358570 2.632267107644 4.82256184426 2 1.492978924444 2.190294736616 3.68327366106 7.0263771020817
5138	5537384 84 184209 360495 2.634414147644 4.847478052022 2 1.495018124444 2.213063904378 3.708082028822 7.1327310372769
5139	5537468 82 184290 362487 2.636138642622 4.850956612022 2 1.496542299422 2.2148179694 3.711360268822 7.1450574915364
5140	5537550 84 184365 363316 2.637978162622 4.854466105677 2 1.498177739422 2.216487943055 3.714665682477 7.1573553406078
5141	5537634 84 184451 363828 2.639717682622 4.857911228703 2 1.499713179422 2.218193546081 3.717906725503 7.1695222284074
5142	5537718 77 184557 364423 2.6414486056 4.86146184426 2 1.501335932 2.22001323866 3.72134917066 7.18246836054
5143	5537795 78 184630 364689 2.6431881256 4.86494040426 2 1.5028754624 2.22175227866 3.72462774106 7.1948178432149
5144	5537873 80 184724 364899 2.6450276456 4.868478052022 2 1.5045109024 2.223450406422 3.727961308822 7.2072847652586
5145	5537953 82 184794 365084 2.646787230622 4.871956612022 2 1.506066407422 2.2251693814 3.731235788822 7.2196147994851
5146	5538035 84 184848 365175 2.648526750622 4.875466105677 2 1.507601847422 2.226939355055 3.734541202477 7.232122221443
5147	5538119 84 184934 365249 2.650266270622 4.879044665677 2 1.509137287422 2.228778395055 3.737915682477 7.2449484865514
5148	5538203 80 185005 365371 2.65207722938 4.88246184426 2 1.51074128618 2.23038461488 3.74112590106 7.2569547640622
5149	5538283 79 185059 365762 2.65381674938 4.8858895576 2 1.51217552618 2.23207280822 3.7442483344 7.2688238431729
5150	5538362 79 185145 367898 2.65555626938 4.8894026936 2 1.51361096618 2.23384642422 3.7474573904 7.2810880039408
5151	5538441 82 185199 369451 2.657368365822 4.8929431416 2 1.515114902622 2.235574775778 3.7506896784 7.2933677462421
5152	5538523 82 185253 370097 2.659107885822 4.8966253016 2 1.516546262622 2.237517415778 3.7540636784 7.3063967525826
5153	5538605 82 185356 370683 2.660847405822 4.8999477016 2 1.517977622622 2.239100295778 3.7570779184 7.3178261973343
5154	5538687 82 185410 371243 2.662628429822 4.9035185816 2 1.519454566622 2.240890151778 3.7603447184 7.3303308523641
5155	5538769 82 185464 371293 2.664367949822 4.907016936022 2 1.520885926622 2.2426489862 3.763534912822 7.3425684771007
5156	5538851 82 185535 371351 2.666207469822 4.910595496022 2 1.522417286622 2.2443880262 3.766805312822 7.3550320067554
5157	5538933 82 185588 371407 2.667941709822 4.914036856022 2 1.523847446622 2.2460951462 3.769942592822 7.3670544463596
5158	5539015 84 185658 371466 2.669681229822 4.917604989677 2 1.525278806622 2.247923759855 3.773202566477 7.3796366680509
5159	5539099 81 185744 371588 2.671420749822 4.92106184426 2 1.5266690224 2.249641094438 3.776310116838 7.39160335774
5160	5539180 83 185798 371661 2.67324701658 4.924627109243 2 1.528188329158 2.251380092663 3.779568421821 7.404071891014
5161	5539263 83 185868 373346 2.67498653658 4.928078052022 2 1.529620889158 2.253091515442 3.7827124046 7.4161614415052
5162	5539346 83 185938 375377 2.67672605658 4.931656612022 2 1.531053449158 2.254930555442 3.7859840046 7.4288364740446
5163	5539429 82 185992 375581 2.678544765822 4.935166105677 2 1.5325651984 2.256621339855 3.789186538255 7.4410959588358
5164	5539511 40 186079 186079 2.680284285822 2.680284285822 1 1.5339977584 1.5339977584 1.5339977584 2.3531491227762
5165	5539551 40 186149 186149 2.682023805822 2.682023805822 1 1.5354303184 1.5354303184 1.5354303184 2.3575462626619
5166	5539591 82 186202 375623 2.683761417822 4.938644665677 2 1.5368609704 2.254883247855 3.791744218255 7.4464401037959
5167	5539673 1616 229415 376096 3.06000622 4.96017133066 60 75 75 4500 337500
5168	5541289 1616 229417 376098 3.06000692 4.96017203066 60 75 75 4500 337500
5169	5542905 2109 229420 376101 3.06000692 4.96017203066 60 0.06000692 0.06052090378 3.602754722419 0.21633107167197
5170	5545014 1207 290954 376069 4.060133310925 4.96000622 46 75 75 3450 258750
5171	5546221 1207 290966 376071 4.060134010925 4.96000692 46 75 75 3450 258750
5172	5547428 1586 290969 376074 4.060134010925 4.96000692 46 0.06000692 0.060190528 2.760789747644 0.16569484124547
5173	5549014 56 296857 379923 4.260162692222 4.9715809128 2 0 0 0 0
5174	5549070 62 296857 379923 4.260162692222 4.9715809128 2 0.02 0.02 0.04 0.0008
5175	5549132 56 296857 379923 4.260162692222 4.9715809128 2 0 0 0 0
5176	5549188 84 296857 379923 4.260162692222 4.9715809128 2 4.3689959078781 4.3690260566731 8.7380219645513 38.176513926945
5177	5549272 56 296857 379923 4.260162692222 4.9715809128 2 0 0 0 0
5178	5549328 55 338388 379923 4.66017203066 4.9715809128 2 0 0 0 0
5179	5549383 61 338388 379923 4.66017203066 4.9715809128 2 0.02 0.02 0.04 0.0008
5180	5549444 55 338388 379923 4.66017203066 4.9715809128 2 0 0 0 0
5181	5549499 83 338388 379923 4.66017203066 4.9715809128 2 4.3690260566731 4.3690800160451 8.7381060727183 38.177248870494
5182	5549582 55 338388 379923 4.66017203066 4.9715809128 2 0 0 0 0
5183	5549637 27 379923 379923 4.9715809128 4.9715809128 1 0 0 0 0
5184	5549664 30 379923 379923 4.9715809128 4.9715809128 1 0.02 0.02 0.02 0.0004
5185	5549694 27 379923 379923 4.9715809128 4.9715809128 1 0 0 0 0
5186	5549721 41 379923 379923 4.9715809128 4.9715809128 1 4.3690800160451 4.3690800160451 4.3690800160451 19.088860186605
5187	5549762 27 379923 379923 4.9715809128 4.9715809128 1 0 0 0 0
5188	5549789 27 379923 379923 4.9715809128 4.9715809128 1 0 0 0 0
5189	5549816 30 379923 379923 4.9715809128 4.9715809128 1 0.02 0.02 0.02 0.0004
5190	5549846 27 379923 379923 4.9715809128 4.9715809128 1 0 0 0 0
5191	5549873 41 379923 379923 4.9715809128 4.9715809128 1 4.3690113958252 4.3690113958252 4.3690113958252 19.08826057685
5192	5549914 27 379923 379923 4.9715809128 4.9715809128 1 0 0 0 0

