file 15429730 1711110254                                        
version 3
run testingConfigurator-0-20240322-13:22:53-30801
attr configname testingConfigurator
attr datetime 20240322-13:22:53
attr datetimef 20240322-132253
attr experiment testingConfigurator
attr inifile QoEStudies.ini
attr iterationvars ""
attr iterationvarsd ""
attr iterationvarsf ""
attr measurement ""
attr network baselineTestQoS
attr processid 30801
attr repetition 0
attr replication #0
attr resultdir results
attr runnumber 0
attr seedset 0
config description "Configuration for testingConfigurator. All five applications. QoS employed. Guarantee Multiplier: 1; Ceil multiplier: 2"
config extends liteCbaselineTestTokenQoS_base
config sim-time-limit 5s
config *.configurator.config "xmldoc(\"configs/routing/testingConfiguratorRouting.xml\")"
config *.nVID 29
config *.nLVD 0
config *.nFDO 30
config *.nSSH 0
config *.nVIP 0
config *.ncVIP 0
config *.router*.ppp[0].queue.typename HtbQueue
config *.router*.ppp[0].queue.numQueues 59
config *.router*.ppp[0].queue.queue[*].typename DropTailQueue
config *.router*.ppp[0].queue.packetCapacity -1
config *.router*.ppp[0].queue.htbHysterisis false
config *.router*.ppp[0].queue.scheduler.adjustHTBTreeValuesForCorectness false
config *.router*.ppp[0].queue.scheduler.checkHTBTreeValuesForCorectness false
config *.router*.ppp[0].queue.htbTreeConfig "readJSON(\"json/testingConfiguratorHTB.json\")"
config *.router*.ppp[0].queue.classifier.defaultGateIndex 0
config *.router0.ppp[0].queue.classifier.packetFilters "[expr(ipv4.srcAddress.str() =~ \"10.0.0.0\"),expr(ipv4.srcAddress.str() =~ \"10.0.0.4\"),expr(ipv4.srcAddress.str() =~ \"10.0.0.8\"),expr(ipv4.srcAddress.str() =~ \"10.0.0.12\"),expr(ipv4.srcAddress.str() =~ \"10.0.0.16\"),expr(ipv4.srcAddress.str() =~ \"10.0.0.20\"),expr(ipv4.srcAddress.str() =~ \"10.0.0.24\"),expr(ipv4.srcAddress.str() =~ \"10.0.0.28\"),expr(ipv4.srcAddress.str() =~ \"10.0.0.32\"),expr(ipv4.srcAddress.str() =~ \"10.0.0.36\"),expr(ipv4.srcAddress.str() =~ \"10.0.0.40\"),expr(ipv4.srcAddress.str() =~ \"10.0.0.44\"),expr(ipv4.srcAddress.str() =~ \"10.0.0.48\"),expr(ipv4.srcAddress.str() =~ \"10.0.0.52\"),expr(ipv4.srcAddress.str() =~ \"10.0.0.56\"),expr(ipv4.srcAddress.str() =~ \"10.0.0.60\"),expr(ipv4.srcAddress.str() =~ \"10.0.0.64\"),expr(ipv4.srcAddress.str() =~ \"10.0.0.68\"),expr(ipv4.srcAddress.str() =~ \"10.0.0.72\"),expr(ipv4.srcAddress.str() =~ \"10.0.0.76\"),expr(ipv4.srcAddress.str() =~ \"10.0.0.80\"),expr(ipv4.srcAddress.str() =~ \"10.0.0.84\"),expr(ipv4.srcAddress.str() =~ \"10.0.0.88\"),expr(ipv4.srcAddress.str() =~ \"10.0.0.92\"),expr(ipv4.srcAddress.str() =~ \"10.0.0.96\"),expr(ipv4.srcAddress.str() =~ \"10.0.0.100\"),expr(ipv4.srcAddress.str() =~ \"10.0.0.104\"),expr(ipv4.srcAddress.str() =~ \"10.0.0.108\"),expr(ipv4.srcAddress.str() =~ \"10.0.0.112\"),expr(ipv4.srcAddress.str() =~ \"10.0.0.116\"),expr(ipv4.srcAddress.str() =~ \"10.1.0.0\"),expr(ipv4.srcAddress.str() =~ \"10.1.0.4\"),expr(ipv4.srcAddress.str() =~ \"10.1.0.8\"),expr(ipv4.srcAddress.str() =~ \"10.1.0.12\"),expr(ipv4.srcAddress.str() =~ \"10.1.0.16\"),expr(ipv4.srcAddress.str() =~ \"10.1.0.20\"),expr(ipv4.srcAddress.str() =~ \"10.1.0.24\"),expr(ipv4.srcAddress.str() =~ \"10.1.0.28\"),expr(ipv4.srcAddress.str() =~ \"10.1.0.32\"),expr(ipv4.srcAddress.str() =~ \"10.1.0.36\"),expr(ipv4.srcAddress.str() =~ \"10.1.0.40\"),expr(ipv4.srcAddress.str() =~ \"10.1.0.44\"),expr(ipv4.srcAddress.str() =~ \"10.1.0.48\"),expr(ipv4.srcAddress.str() =~ \"10.1.0.52\"),expr(ipv4.srcAddress.str() =~ \"10.1.0.56\"),expr(ipv4.srcAddress.str() =~ \"10.1.0.60\"),expr(ipv4.srcAddress.str() =~ \"10.1.0.64\"),expr(ipv4.srcAddress.str() =~ \"10.1.0.68\"),expr(ipv4.srcAddress.str() =~ \"10.1.0.72\"),expr(ipv4.srcAddress.str() =~ \"10.1.0.76\"),expr(ipv4.srcAddress.str() =~ \"10.1.0.80\"),expr(ipv4.srcAddress.str() =~ \"10.1.0.84\"),expr(ipv4.srcAddress.str() =~ \"10.1.0.88\"),expr(ipv4.srcAddress.str() =~ \"10.1.0.92\"),expr(ipv4.srcAddress.str() =~ \"10.1.0.96\"),expr(ipv4.srcAddress.str() =~ \"10.1.0.100\"),expr(ipv4.srcAddress.str() =~ \"10.1.0.104\"),expr(ipv4.srcAddress.str() =~ \"10.1.0.108\"),expr(ipv4.srcAddress.str() =~ \"10.1.0.112\")]"
config *.router1.ppp[0].queue.classifier.packetFilters "[expr(ipv4.destAddress.str() =~ \"10.0.0.0\"),expr(ipv4.destAddress.str() =~ \"10.0.0.4\"),expr(ipv4.destAddress.str() =~ \"10.0.0.8\"),expr(ipv4.destAddress.str() =~ \"10.0.0.12\"),expr(ipv4.destAddress.str() =~ \"10.0.0.16\"),expr(ipv4.destAddress.str() =~ \"10.0.0.20\"),expr(ipv4.destAddress.str() =~ \"10.0.0.24\"),expr(ipv4.destAddress.str() =~ \"10.0.0.28\"),expr(ipv4.destAddress.str() =~ \"10.0.0.32\"),expr(ipv4.destAddress.str() =~ \"10.0.0.36\"),expr(ipv4.destAddress.str() =~ \"10.0.0.40\"),expr(ipv4.destAddress.str() =~ \"10.0.0.44\"),expr(ipv4.destAddress.str() =~ \"10.0.0.48\"),expr(ipv4.destAddress.str() =~ \"10.0.0.52\"),expr(ipv4.destAddress.str() =~ \"10.0.0.56\"),expr(ipv4.destAddress.str() =~ \"10.0.0.60\"),expr(ipv4.destAddress.str() =~ \"10.0.0.64\"),expr(ipv4.destAddress.str() =~ \"10.0.0.68\"),expr(ipv4.destAddress.str() =~ \"10.0.0.72\"),expr(ipv4.destAddress.str() =~ \"10.0.0.76\"),expr(ipv4.destAddress.str() =~ \"10.0.0.80\"),expr(ipv4.destAddress.str() =~ \"10.0.0.84\"),expr(ipv4.destAddress.str() =~ \"10.0.0.88\"),expr(ipv4.destAddress.str() =~ \"10.0.0.92\"),expr(ipv4.destAddress.str() =~ \"10.0.0.96\"),expr(ipv4.destAddress.str() =~ \"10.0.0.100\"),expr(ipv4.destAddress.str() =~ \"10.0.0.104\"),expr(ipv4.destAddress.str() =~ \"10.0.0.108\"),expr(ipv4.destAddress.str() =~ \"10.0.0.112\"),expr(ipv4.destAddress.str() =~ \"10.0.0.116\"),expr(ipv4.destAddress.str() =~ \"10.1.0.0\"),expr(ipv4.destAddress.str() =~ \"10.1.0.4\"),expr(ipv4.destAddress.str() =~ \"10.1.0.8\"),expr(ipv4.destAddress.str() =~ \"10.1.0.12\"),expr(ipv4.destAddress.str() =~ \"10.1.0.16\"),expr(ipv4.destAddress.str() =~ \"10.1.0.20\"),expr(ipv4.destAddress.str() =~ \"10.1.0.24\"),expr(ipv4.destAddress.str() =~ \"10.1.0.28\"),expr(ipv4.destAddress.str() =~ \"10.1.0.32\"),expr(ipv4.destAddress.str() =~ \"10.1.0.36\"),expr(ipv4.destAddress.str() =~ \"10.1.0.40\"),expr(ipv4.destAddress.str() =~ \"10.1.0.44\"),expr(ipv4.destAddress.str() =~ \"10.1.0.48\"),expr(ipv4.destAddress.str() =~ \"10.1.0.52\"),expr(ipv4.destAddress.str() =~ \"10.1.0.56\"),expr(ipv4.destAddress.str() =~ \"10.1.0.60\"),expr(ipv4.destAddress.str() =~ \"10.1.0.64\"),expr(ipv4.destAddress.str() =~ \"10.1.0.68\"),expr(ipv4.destAddress.str() =~ \"10.1.0.72\"),expr(ipv4.destAddress.str() =~ \"10.1.0.76\"),expr(ipv4.destAddress.str() =~ \"10.1.0.80\"),expr(ipv4.destAddress.str() =~ \"10.1.0.84\"),expr(ipv4.destAddress.str() =~ \"10.1.0.88\"),expr(ipv4.destAddress.str() =~ \"10.1.0.92\"),expr(ipv4.destAddress.str() =~ \"10.1.0.96\"),expr(ipv4.destAddress.str() =~ \"10.1.0.100\"),expr(ipv4.destAddress.str() =~ \"10.1.0.104\"),expr(ipv4.destAddress.str() =~ \"10.1.0.108\"),expr(ipv4.destAddress.str() =~ \"10.1.0.112\")]"
config **.connFIX0.datarate 100Mbps
config **.connFIX0.delay 40ms
config description "All five applications - base configuration without any resource allocation"
config network baselineTestQoS
config sim-time-limit 400s
config output-vector-file results/testingConfigurator/testingConfigurator-0.vec
config output-scalar-file results/testingConfigurator/testingConfigurator-0.sca
config **.crcMode "\"computed\""
config *.host*.numApps 1
config *.hostFDO[*].hasTcp true
config *.hostFDO[*].app[0].typename TcpFileDownloadApp
config *.hostFDO[*].app[0].localAddress "\"\""
config *.hostFDO[*].app[0].localPort -1
config *.hostFDO[*].app[0].connectAddress "\"serverFDO\""
config *.hostFDO[*].app[0].connectPort 1042
config *.hostFDO[*].app[0].startTime uniform(0.01s,1s)
config *.hostFDO[*].app[0].stopTime -1s
config *.hostFDO[*].app[0].numRequestsPerSession 1
config *.hostFDO[*].app[0].requestLength 800B
config *.hostFDO[*].app[0].replyLength 10000KiB
config *.hostFDO[*].app[0].thinkTime 0.01s
config *.hostFDO[*].app[0].idleInterval 1s
config *.hostFDO[*].app[0].reconnectInterval 1s
config *.hostFDO[*].app[0].stopOperationExtraTime -1s
config *.hostFDO[*].app[0].stopOperationTimeout 2s
config *.serverFDO.hasTcp true
config *.serverFDO.numApps 1
config *.serverFDO.app[0].typename TcpGenericServerApp
config *.serverFDO.app[0].localAddress "\"\""
config *.serverFDO.app[0].localPort 1042
config *.serverFDO.app[0].replyDelay 0s
config *.serverFDO.app[0].stopOperationExtraTime -1s
config *.serverFDO.app[0].stopOperationTimeout 2s
config **.hostVID[*].hasTcp true
config **.hostVID[*].app[0].typename improved5gns.apps.TCPVideoStreamCliAppV2lite
config **.hostVID[*].app[0].localAddress "\"\""
config **.hostVID[*].app[0].localPort -1
config **.hostVID[*].app[0].connectAddress "\"serverVID\""
config **.hostVID[*].app[0].connectPort 1042
config **.hostVID[*].app[0].dataTransferMode "\"object\""
config **.hostVID[*].app[0].startTime uniform(0.01s,1s)
config **.hostVID[*].app[0].stopTime -1s
config **.hostVID[*].app[0].idleInterval 1s
config **.hostVID[*].app[0].requestLength 200B
config **.hostVID[*].app[0].reconnectInterval 1s
config **.hostVID[*].app[0].numRequestsPerSession 1
config **.hostVID[*].app[0].thinkTime 1s
config **.hostVID[*].app[0].video_resolution "\"360 480 720 1080\""
config **.hostVID[*].app[0].manifest_size 100000
config **.hostVID[*].app[0].video_buffer_max_length 40s
config **.hostVID[*].app[0].video_duration int(uniform(240s,320s))
config **.hostVID[*].app[0].segment_length 5s
config **.hostVID[*].app[0].useFlexibleBitrate "\"flexible\""
config *.serverVID.hasTcp true
config *.serverVID.numApps 1
config *.serverVID.app[0].typename TcpGenericServerApp
config *.serverVID.app[0].localAddress "\"\""
config *.serverVID.app[0].localPort 1042
config *.serverVID.app[0].replyDelay 0s
config *.serverVID.app[0].stopOperationExtraTime -1s
config *.serverVID.app[0].stopOperationTimeout 2s
config **.hostLVD[*].hasTcp true
config **.hostLVD[*].app[0].typename TCPLiveVideoStreamCliAppLite
config **.hostLVD[*].app[0].localAddress "\"\""
config **.hostLVD[*].app[0].localPort -1
config **.hostLVD[*].app[0].connectAddress "\"serverLVD\""
config **.hostLVD[*].app[0].connectPort 1043
config **.hostLVD[*].app[0].dataTransferMode "\"object\""
config **.hostLVD[*].app[0].startTime uniform(0.01s,1s)
config **.hostLVD[*].app[0].stopTime -1s
config **.hostLVD[*].app[0].idleInterval 1s
config **.hostLVD[*].app[0].requestLength 200B
config **.hostLVD[*].app[0].reconnectInterval 1s
config **.hostLVD[*].app[0].numRequestsPerSession 1
config **.hostLVD[*].app[0].thinkTime 1s
config **.hostLVD[*].app[0].video_resolution "\"240 360 480 720 1080\""
config **.hostLVD[*].app[0].manifest_size 100000
config **.hostLVD[*].app[0].video_buffer_max_length 6s
config **.hostLVD[*].app[0].video_duration int(uniform(40s,70s))
config **.hostLVD[*].app[0].segment_length 1s
config **.hostLVD[*].app[0].useFlexibleBitrate "\"flexible\""
config **.hostLVD[*].app[0].video_type "\"live\""
config **.hostLVD[*].app[0].delay_threshold 4
config **.hostLVD[*].app[0].speedup_rate 1.05
config *.serverLVD.hasTcp true
config *.serverLVD.numApps 1
config *.serverLVD.app[0].typename TcpGenericServerApp
config *.serverLVD.app[0].localAddress "\"\""
config *.serverLVD.app[0].localPort 1043
config *.serverLVD.app[0].replyDelay 0s
config *.serverLVD.app[0].stopOperationExtraTime -1s
config *.serverLVD.app[0].stopOperationTimeout 2s
config **.hostSSH[*].hasTcp true
config **.hostSSH[*].app[0].typename TcpSimpleSshAppV2lite
config **.hostSSH[*].app[0].localAddress "\"\""
config **.hostSSH[*].app[0].localPort -1
config **.hostSSH[*].app[0].connectAddress "\"serverSSH\""
config **.hostSSH[*].app[0].connectPort 22
config **.hostSSH[*].app[0].startTime uniform(0.01s,1s)
config **.hostSSH[*].app[0].stopTime -1s
config **.hostSSH[*].app[0].numCommands 1
config **.hostSSH[*].app[0].commandLength 10B
config **.hostSSH[*].app[0].keyPressDelay 0.05s
config **.hostSSH[*].app[0].commandOutputLength 500B
config **.hostSSH[*].app[0].thinkTime 1s
config **.hostSSH[*].app[0].idleInterval 1s
config **.hostSSH[*].app[0].reconnectInterval 1s
config **.hostSSH[*].app[0].stopOperationExtraTime -1s
config **.hostSSH[*].app[0].stopOperationTimeout 2s
config *.serverSSH.hasTcp true
config *.serverSSH.numApps 1
config *.serverSSH.app[*].typename TcpGenericServerApp
config *.serverSSH.app[*].localAddress "\"\""
config *.serverSSH.app[*].localPort 22
config *.serverSSH.app[*].replyDelay 0s
config *.serverSSH.app[*].stopOperationExtraTime -1s
config *.serverSSH.app[*].stopOperationTimeout 2s
config **.hostVIP[*].hasUdp true
config **.hostVIP[*].app[0].typename SimpleVoipReceiver
config **.hostVIP[*].app[0].localPort 2000
config **.hostVIP[*].app[0].emodelIe 5
config **.hostVIP[*].app[0].emodelBpl 10
config **.hostVIP[*].app[0].emodelA 5
config **.hostVIP[*].app[0].emodelRo 93.2
config **.hostVIP[*].app[0].playoutDelay 20ms
config **.hostVIP[*].app[0].adaptivePlayoutDelay false
config **.hostVIP[*].app[0].bufferSpace 20
config **.hostVIP[*].app[0].mosSpareTime 1s
config **.serverVIP.hasUdp true
config **.serverVIP.numApps parent.nVIP
config **.serverVIP.app[*].typename SimpleVoipSender
config **.serverVIP.app[*].localPort -1
config **.serverVIP.app[*].destAddress "\"hostVIP[\" + string(index) + \"]\""
config **.serverVIP.app[*].destPort 2000
config **.serverVIP.app[*].talkPacketSize 40B
config **.serverVIP.app[*].talkspurtDuration "weibull(1.423s, 0.824s)"
config **.serverVIP.app[*].silenceDuration "weibull(0.899s, 1.089s)"
config **.serverVIP.app[*].packetizationInterval 20ms
config **.serverVIP.app[*].startTime uniform(0.01s,1s)
config **.serverVIP.app[*].stopTime -1s
config **.hostcVIP[*].hasUdp true
config **.hostcVIP[*].app[0].typename improved5gns.apps.SimpleVoipReceiverCustom
config **.hostcVIP[*].app[0].localPort 2000
config **.hostcVIP[*].app[0].emodelIe 5
config **.hostcVIP[*].app[0].emodelBpl 10
config **.hostcVIP[*].app[0].emodelA 5
config **.hostcVIP[*].app[0].emodelRo 93.2
config **.hostcVIP[*].app[0].playoutDelay 20ms
config **.hostcVIP[*].app[0].adaptivePlayoutDelay false
config **.hostcVIP[*].app[0].bufferSpace 20
config **.hostcVIP[*].app[0].mosSpareTime 1s
config **.servercVIP.hasUdp true
config **.servercVIP.numApps parent.ncVIP
config **.servercVIP.app[*].typename improved5gns.apps.SimpleVoipSenderCustom
config **.servercVIP.app[*].localPort -1
config **.servercVIP.app[*].destPort 2000
config **.servercVIP.app[*].destAddress "\"hostcVIP[\" + string(index) + \"]\""
config **.servercVIP.app[*].talkPacketSize 40B
config **.servercVIP.app[*].talkspurtDuration "weibull(1.423s, 0.824s)"
config **.servercVIP.app[*].silenceDuration "weibull(0.899s, 1.089s)"
config **.servercVIP.app[*].packetizationInterval 2ms
config **.servercVIP.app[*].startTime uniform(0.01s,1s)
config **.servercVIP.app[*].stopTime -1s
config sim-time-limit 250s
config num-rngs 1
config seed-0-mt 5
config output-scalar-file-append false
config record-eventlog false
config cmdenv-express-mode false
config cmdenv-output-file log.txt
config cmdenv-autoflush true
config **.cmdenv-log-level FATAL
config *.visualizer.*.interfaceTableVisualizer.displayInterfaceTables true
config **.tcp.typename Tcp
config **.udp.typename Udp
config **.packetCapacity 500
config **.tcp.advertisedWindow 65535
config **.tcp.delayedAcksEnabled false
config **.tcp.nagleEnabled true
config **.tcp.limitedTransmitEnabled false
config **.tcp.increasedIWEnabled false
config **.tcp.sackSupport false
config **.tcp.windowScalingSupport false
config **.tcp.timestampSupport false
config **.tcp.mss 1452
config **.tcp.tcpAlgorithmClass "\"TcpReno\""
config **.tcp.*.*.vector-recording true
config **.tcp.*.rtt.result-recording-modes +vector
config **.tcp.*.*.result-recording-modes -vector
config **.host*.app*.*.vector-recording true
config **.ppp.*xPk*.vector-recording true
config **.vector-recording false

vector 0 baselineTestQoS.hostVID[0].app[0] numActiveSessions:vector ETV
attr interpolationmode sample-hold
attr recordingmode vector
attr source sum(connect)
attr title "number of active sessions"
vector 1 baselineTestQoS.hostVID[1].app[0] numActiveSessions:vector ETV
attr interpolationmode sample-hold
attr recordingmode vector
attr source sum(connect)
attr title "number of active sessions"
vector 2 baselineTestQoS.hostVID[2].app[0] numActiveSessions:vector ETV
attr interpolationmode sample-hold
attr recordingmode vector
attr source sum(connect)
attr title "number of active sessions"
vector 3 baselineTestQoS.hostVID[3].app[0] numActiveSessions:vector ETV
attr interpolationmode sample-hold
attr recordingmode vector
attr source sum(connect)
attr title "number of active sessions"
vector 4 baselineTestQoS.hostVID[4].app[0] numActiveSessions:vector ETV
attr interpolationmode sample-hold
attr recordingmode vector
attr source sum(connect)
attr title "number of active sessions"
vector 5 baselineTestQoS.hostVID[5].app[0] numActiveSessions:vector ETV
attr interpolationmode sample-hold
attr recordingmode vector
attr source sum(connect)
attr title "number of active sessions"
vector 6 baselineTestQoS.hostVID[6].app[0] numActiveSessions:vector ETV
attr interpolationmode sample-hold
attr recordingmode vector
attr source sum(connect)
attr title "number of active sessions"
vector 7 baselineTestQoS.hostVID[7].app[0] numActiveSessions:vector ETV
attr interpolationmode sample-hold
attr recordingmode vector
attr source sum(connect)
attr title "number of active sessions"
vector 8 baselineTestQoS.hostVID[8].app[0] numActiveSessions:vector ETV
attr interpolationmode sample-hold
attr recordingmode vector
attr source sum(connect)
attr title "number of active sessions"
vector 9 baselineTestQoS.hostVID[9].app[0] numActiveSessions:vector ETV
attr interpolationmode sample-hold
attr recordingmode vector
attr source sum(connect)
attr title "number of active sessions"
vector 10 baselineTestQoS.hostVID[10].app[0] numActiveSessions:vector ETV
attr interpolationmode sample-hold
attr recordingmode vector
attr source sum(connect)
attr title "number of active sessions"
vector 11 baselineTestQoS.hostVID[11].app[0] numActiveSessions:vector ETV
attr interpolationmode sample-hold
attr recordingmode vector
attr source sum(connect)
attr title "number of active sessions"
vector 12 baselineTestQoS.hostVID[12].app[0] numActiveSessions:vector ETV
attr interpolationmode sample-hold
attr recordingmode vector
attr source sum(connect)
attr title "number of active sessions"
vector 13 baselineTestQoS.hostVID[13].app[0] numActiveSessions:vector ETV
attr interpolationmode sample-hold
attr recordingmode vector
attr source sum(connect)
attr title "number of active sessions"
vector 14 baselineTestQoS.hostVID[14].app[0] numActiveSessions:vector ETV
attr interpolationmode sample-hold
attr recordingmode vector
attr source sum(connect)
attr title "number of active sessions"
vector 15 baselineTestQoS.hostVID[15].app[0] numActiveSessions:vector ETV
attr interpolationmode sample-hold
attr recordingmode vector
attr source sum(connect)
attr title "number of active sessions"
vector 16 baselineTestQoS.hostVID[16].app[0] numActiveSessions:vector ETV
attr interpolationmode sample-hold
attr recordingmode vector
attr source sum(connect)
attr title "number of active sessions"
vector 17 baselineTestQoS.hostVID[17].app[0] numActiveSessions:vector ETV
attr interpolationmode sample-hold
attr recordingmode vector
attr source sum(connect)
attr title "number of active sessions"
vector 18 baselineTestQoS.hostVID[18].app[0] numActiveSessions:vector ETV
attr interpolationmode sample-hold
attr recordingmode vector
attr source sum(connect)
attr title "number of active sessions"
vector 19 baselineTestQoS.hostVID[19].app[0] numActiveSessions:vector ETV
attr interpolationmode sample-hold
attr recordingmode vector
attr source sum(connect)
attr title "number of active sessions"
vector 20 baselineTestQoS.hostVID[20].app[0] numActiveSessions:vector ETV
attr interpolationmode sample-hold
attr recordingmode vector
attr source sum(connect)
attr title "number of active sessions"
vector 21 baselineTestQoS.hostVID[21].app[0] numActiveSessions:vector ETV
attr interpolationmode sample-hold
attr recordingmode vector
attr source sum(connect)
attr title "number of active sessions"
vector 22 baselineTestQoS.hostVID[22].app[0] numActiveSessions:vector ETV
attr interpolationmode sample-hold
attr recordingmode vector
attr source sum(connect)
attr title "number of active sessions"
vector 23 baselineTestQoS.hostVID[23].app[0] numActiveSessions:vector ETV
attr interpolationmode sample-hold
attr recordingmode vector
attr source sum(connect)
attr title "number of active sessions"
vector 24 baselineTestQoS.hostVID[24].app[0] numActiveSessions:vector ETV
attr interpolationmode sample-hold
attr recordingmode vector
attr source sum(connect)
attr title "number of active sessions"
vector 25 baselineTestQoS.hostVID[25].app[0] numActiveSessions:vector ETV
attr interpolationmode sample-hold
attr recordingmode vector
attr source sum(connect)
attr title "number of active sessions"
vector 26 baselineTestQoS.hostVID[26].app[0] numActiveSessions:vector ETV
attr interpolationmode sample-hold
attr recordingmode vector
attr source sum(connect)
attr title "number of active sessions"
vector 27 baselineTestQoS.hostVID[27].app[0] numActiveSessions:vector ETV
attr interpolationmode sample-hold
attr recordingmode vector
attr source sum(connect)
attr title "number of active sessions"
vector 28 baselineTestQoS.hostVID[28].app[0] numActiveSessions:vector ETV
attr interpolationmode sample-hold
attr recordingmode vector
attr source sum(connect)
attr title "number of active sessions"
vector 29 baselineTestQoS.hostFDO[0].app[0] numActiveSessions:vector ETV
attr interpolationmode sample-hold
attr recordingmode vector
attr source sum(connect)
attr title "number of active sessions"
vector 30 baselineTestQoS.hostFDO[1].app[0] numActiveSessions:vector ETV
attr interpolationmode sample-hold
attr recordingmode vector
attr source sum(connect)
attr title "number of active sessions"
vector 31 baselineTestQoS.hostFDO[2].app[0] numActiveSessions:vector ETV
attr interpolationmode sample-hold
attr recordingmode vector
attr source sum(connect)
attr title "number of active sessions"
vector 32 baselineTestQoS.hostFDO[3].app[0] numActiveSessions:vector ETV
attr interpolationmode sample-hold
attr recordingmode vector
attr source sum(connect)
attr title "number of active sessions"
vector 33 baselineTestQoS.hostFDO[4].app[0] numActiveSessions:vector ETV
attr interpolationmode sample-hold
attr recordingmode vector
attr source sum(connect)
attr title "number of active sessions"
vector 34 baselineTestQoS.hostFDO[5].app[0] numActiveSessions:vector ETV
attr interpolationmode sample-hold
attr recordingmode vector
attr source sum(connect)
attr title "number of active sessions"
vector 35 baselineTestQoS.hostFDO[6].app[0] numActiveSessions:vector ETV
attr interpolationmode sample-hold
attr recordingmode vector
attr source sum(connect)
attr title "number of active sessions"
vector 36 baselineTestQoS.hostFDO[7].app[0] numActiveSessions:vector ETV
attr interpolationmode sample-hold
attr recordingmode vector
attr source sum(connect)
attr title "number of active sessions"
vector 37 baselineTestQoS.hostFDO[8].app[0] numActiveSessions:vector ETV
attr interpolationmode sample-hold
attr recordingmode vector
attr source sum(connect)
attr title "number of active sessions"
vector 38 baselineTestQoS.hostFDO[9].app[0] numActiveSessions:vector ETV
attr interpolationmode sample-hold
attr recordingmode vector
attr source sum(connect)
attr title "number of active sessions"
vector 39 baselineTestQoS.hostFDO[10].app[0] numActiveSessions:vector ETV
attr interpolationmode sample-hold
attr recordingmode vector
attr source sum(connect)
attr title "number of active sessions"
vector 40 baselineTestQoS.hostFDO[11].app[0] numActiveSessions:vector ETV
attr interpolationmode sample-hold
attr recordingmode vector
attr source sum(connect)
attr title "number of active sessions"
vector 41 baselineTestQoS.hostFDO[12].app[0] numActiveSessions:vector ETV
attr interpolationmode sample-hold
attr recordingmode vector
attr source sum(connect)
attr title "number of active sessions"
vector 42 baselineTestQoS.hostFDO[13].app[0] numActiveSessions:vector ETV
attr interpolationmode sample-hold
attr recordingmode vector
attr source sum(connect)
attr title "number of active sessions"
vector 43 baselineTestQoS.hostFDO[14].app[0] numActiveSessions:vector ETV
attr interpolationmode sample-hold
attr recordingmode vector
attr source sum(connect)
attr title "number of active sessions"
vector 44 baselineTestQoS.hostFDO[15].app[0] numActiveSessions:vector ETV
attr interpolationmode sample-hold
attr recordingmode vector
attr source sum(connect)
attr title "number of active sessions"
vector 45 baselineTestQoS.hostFDO[16].app[0] numActiveSessions:vector ETV
attr interpolationmode sample-hold
attr recordingmode vector
attr source sum(connect)
attr title "number of active sessions"
vector 46 baselineTestQoS.hostFDO[17].app[0] numActiveSessions:vector ETV
attr interpolationmode sample-hold
attr recordingmode vector
attr source sum(connect)
attr title "number of active sessions"
vector 47 baselineTestQoS.hostFDO[18].app[0] numActiveSessions:vector ETV
attr interpolationmode sample-hold
attr recordingmode vector
attr source sum(connect)
attr title "number of active sessions"
vector 48 baselineTestQoS.hostFDO[19].app[0] numActiveSessions:vector ETV
attr interpolationmode sample-hold
attr recordingmode vector
attr source sum(connect)
attr title "number of active sessions"
vector 49 baselineTestQoS.hostFDO[20].app[0] numActiveSessions:vector ETV
attr interpolationmode sample-hold
attr recordingmode vector
attr source sum(connect)
attr title "number of active sessions"
vector 50 baselineTestQoS.hostFDO[21].app[0] numActiveSessions:vector ETV
attr interpolationmode sample-hold
attr recordingmode vector
attr source sum(connect)
attr title "number of active sessions"
vector 51 baselineTestQoS.hostFDO[22].app[0] numActiveSessions:vector ETV
attr interpolationmode sample-hold
attr recordingmode vector
attr source sum(connect)
attr title "number of active sessions"
vector 52 baselineTestQoS.hostFDO[23].app[0] numActiveSessions:vector ETV
attr interpolationmode sample-hold
attr recordingmode vector
attr source sum(connect)
attr title "number of active sessions"
vector 53 baselineTestQoS.hostFDO[24].app[0] numActiveSessions:vector ETV
attr interpolationmode sample-hold
attr recordingmode vector
attr source sum(connect)
attr title "number of active sessions"
vector 54 baselineTestQoS.hostFDO[25].app[0] numActiveSessions:vector ETV
attr interpolationmode sample-hold
attr recordingmode vector
attr source sum(connect)
attr title "number of active sessions"
vector 55 baselineTestQoS.hostFDO[26].app[0] numActiveSessions:vector ETV
attr interpolationmode sample-hold
attr recordingmode vector
attr source sum(connect)
attr title "number of active sessions"
vector 56 baselineTestQoS.hostFDO[27].app[0] numActiveSessions:vector ETV
attr interpolationmode sample-hold
attr recordingmode vector
attr source sum(connect)
attr title "number of active sessions"
vector 57 baselineTestQoS.hostFDO[28].app[0] numActiveSessions:vector ETV
attr interpolationmode sample-hold
attr recordingmode vector
attr source sum(connect)
attr title "number of active sessions"
vector 58 baselineTestQoS.hostFDO[29].app[0] numActiveSessions:vector ETV
attr interpolationmode sample-hold
attr recordingmode vector
attr source sum(connect)
attr title "number of active sessions"
vector 59 baselineTestQoS.hostVID[0].app[0] DASHBufferLength:vector ETV
attr recordingmode vector
attr title "Video buffer length (in seconds)"
vector 60 baselineTestQoS.hostVID[0].app[0] DASHVideoPlaybackPointer:vector ETV
attr recordingmode vector
attr title "Video playback pointer"
vector 61 baselineTestQoS.hostVID[0].app[0] DASHVideoBitrate:vector ETV
attr recordingmode vector
attr title "Requested video bitrate"
vector 62 baselineTestQoS.hostVID[0].app[0] DASHVideoResolution:vector ETV
attr recordingmode vector
attr title "Requested video resolution"
vector 63 baselineTestQoS.hostVID[1].app[0] DASHBufferLength:vector ETV
attr recordingmode vector
attr title "Video buffer length (in seconds)"
vector 64 baselineTestQoS.hostVID[1].app[0] DASHVideoPlaybackPointer:vector ETV
attr recordingmode vector
attr title "Video playback pointer"
vector 65 baselineTestQoS.hostVID[1].app[0] DASHVideoBitrate:vector ETV
attr recordingmode vector
attr title "Requested video bitrate"
vector 66 baselineTestQoS.hostVID[1].app[0] DASHVideoResolution:vector ETV
attr recordingmode vector
attr title "Requested video resolution"
vector 67 baselineTestQoS.hostVID[2].app[0] DASHBufferLength:vector ETV
attr recordingmode vector
attr title "Video buffer length (in seconds)"
vector 68 baselineTestQoS.hostVID[2].app[0] DASHVideoPlaybackPointer:vector ETV
attr recordingmode vector
attr title "Video playback pointer"
vector 69 baselineTestQoS.hostVID[2].app[0] DASHVideoBitrate:vector ETV
attr recordingmode vector
attr title "Requested video bitrate"
vector 70 baselineTestQoS.hostVID[2].app[0] DASHVideoResolution:vector ETV
attr recordingmode vector
attr title "Requested video resolution"
vector 71 baselineTestQoS.hostVID[3].app[0] DASHBufferLength:vector ETV
attr recordingmode vector
attr title "Video buffer length (in seconds)"
vector 72 baselineTestQoS.hostVID[3].app[0] DASHVideoPlaybackPointer:vector ETV
attr recordingmode vector
attr title "Video playback pointer"
vector 73 baselineTestQoS.hostVID[3].app[0] DASHVideoBitrate:vector ETV
attr recordingmode vector
attr title "Requested video bitrate"
vector 74 baselineTestQoS.hostVID[3].app[0] DASHVideoResolution:vector ETV
attr recordingmode vector
attr title "Requested video resolution"
vector 75 baselineTestQoS.hostVID[4].app[0] DASHBufferLength:vector ETV
attr recordingmode vector
attr title "Video buffer length (in seconds)"
vector 76 baselineTestQoS.hostVID[4].app[0] DASHVideoPlaybackPointer:vector ETV
attr recordingmode vector
attr title "Video playback pointer"
vector 77 baselineTestQoS.hostVID[4].app[0] DASHVideoBitrate:vector ETV
attr recordingmode vector
attr title "Requested video bitrate"
vector 78 baselineTestQoS.hostVID[4].app[0] DASHVideoResolution:vector ETV
attr recordingmode vector
attr title "Requested video resolution"
vector 79 baselineTestQoS.hostVID[5].app[0] DASHBufferLength:vector ETV
attr recordingmode vector
attr title "Video buffer length (in seconds)"
vector 80 baselineTestQoS.hostVID[5].app[0] DASHVideoPlaybackPointer:vector ETV
attr recordingmode vector
attr title "Video playback pointer"
vector 81 baselineTestQoS.hostVID[5].app[0] DASHVideoBitrate:vector ETV
attr recordingmode vector
attr title "Requested video bitrate"
vector 82 baselineTestQoS.hostVID[5].app[0] DASHVideoResolution:vector ETV
attr recordingmode vector
attr title "Requested video resolution"
vector 83 baselineTestQoS.hostVID[6].app[0] DASHBufferLength:vector ETV
attr recordingmode vector
attr title "Video buffer length (in seconds)"
vector 84 baselineTestQoS.hostVID[6].app[0] DASHVideoPlaybackPointer:vector ETV
attr recordingmode vector
attr title "Video playback pointer"
vector 85 baselineTestQoS.hostVID[6].app[0] DASHVideoBitrate:vector ETV
attr recordingmode vector
attr title "Requested video bitrate"
vector 86 baselineTestQoS.hostVID[6].app[0] DASHVideoResolution:vector ETV
attr recordingmode vector
attr title "Requested video resolution"
vector 87 baselineTestQoS.hostVID[7].app[0] DASHBufferLength:vector ETV
attr recordingmode vector
attr title "Video buffer length (in seconds)"
vector 88 baselineTestQoS.hostVID[7].app[0] DASHVideoPlaybackPointer:vector ETV
attr recordingmode vector
attr title "Video playback pointer"
vector 89 baselineTestQoS.hostVID[7].app[0] DASHVideoBitrate:vector ETV
attr recordingmode vector
attr title "Requested video bitrate"
vector 90 baselineTestQoS.hostVID[7].app[0] DASHVideoResolution:vector ETV
attr recordingmode vector
attr title "Requested video resolution"
vector 91 baselineTestQoS.hostVID[8].app[0] DASHBufferLength:vector ETV
attr recordingmode vector
attr title "Video buffer length (in seconds)"
vector 92 baselineTestQoS.hostVID[8].app[0] DASHVideoPlaybackPointer:vector ETV
attr recordingmode vector
attr title "Video playback pointer"
vector 93 baselineTestQoS.hostVID[8].app[0] DASHVideoBitrate:vector ETV
attr recordingmode vector
attr title "Requested video bitrate"
vector 94 baselineTestQoS.hostVID[8].app[0] DASHVideoResolution:vector ETV
attr recordingmode vector
attr title "Requested video resolution"
vector 95 baselineTestQoS.hostVID[9].app[0] DASHBufferLength:vector ETV
attr recordingmode vector
attr title "Video buffer length (in seconds)"
vector 96 baselineTestQoS.hostVID[9].app[0] DASHVideoPlaybackPointer:vector ETV
attr recordingmode vector
attr title "Video playback pointer"
vector 97 baselineTestQoS.hostVID[9].app[0] DASHVideoBitrate:vector ETV
attr recordingmode vector
attr title "Requested video bitrate"
vector 98 baselineTestQoS.hostVID[9].app[0] DASHVideoResolution:vector ETV
attr recordingmode vector
attr title "Requested video resolution"
vector 99 baselineTestQoS.hostVID[10].app[0] DASHBufferLength:vector ETV
attr recordingmode vector
attr title "Video buffer length (in seconds)"
vector 100 baselineTestQoS.hostVID[10].app[0] DASHVideoPlaybackPointer:vector ETV
attr recordingmode vector
attr title "Video playback pointer"
vector 101 baselineTestQoS.hostVID[10].app[0] DASHVideoBitrate:vector ETV
attr recordingmode vector
attr title "Requested video bitrate"
vector 102 baselineTestQoS.hostVID[10].app[0] DASHVideoResolution:vector ETV
attr recordingmode vector
attr title "Requested video resolution"
vector 103 baselineTestQoS.hostVID[11].app[0] DASHBufferLength:vector ETV
attr recordingmode vector
attr title "Video buffer length (in seconds)"
vector 104 baselineTestQoS.hostVID[11].app[0] DASHVideoPlaybackPointer:vector ETV
attr recordingmode vector
attr title "Video playback pointer"
vector 105 baselineTestQoS.hostVID[11].app[0] DASHVideoBitrate:vector ETV
attr recordingmode vector
attr title "Requested video bitrate"
vector 106 baselineTestQoS.hostVID[11].app[0] DASHVideoResolution:vector ETV
attr recordingmode vector
attr title "Requested video resolution"
vector 107 baselineTestQoS.hostVID[12].app[0] DASHBufferLength:vector ETV
attr recordingmode vector
attr title "Video buffer length (in seconds)"
vector 108 baselineTestQoS.hostVID[12].app[0] DASHVideoPlaybackPointer:vector ETV
attr recordingmode vector
attr title "Video playback pointer"
vector 109 baselineTestQoS.hostVID[12].app[0] DASHVideoBitrate:vector ETV
attr recordingmode vector
attr title "Requested video bitrate"
vector 110 baselineTestQoS.hostVID[12].app[0] DASHVideoResolution:vector ETV
attr recordingmode vector
attr title "Requested video resolution"
vector 111 baselineTestQoS.hostVID[13].app[0] DASHBufferLength:vector ETV
attr recordingmode vector
attr title "Video buffer length (in seconds)"
vector 112 baselineTestQoS.hostVID[13].app[0] DASHVideoPlaybackPointer:vector ETV
attr recordingmode vector
attr title "Video playback pointer"
vector 113 baselineTestQoS.hostVID[13].app[0] DASHVideoBitrate:vector ETV
attr recordingmode vector
attr title "Requested video bitrate"
vector 114 baselineTestQoS.hostVID[13].app[0] DASHVideoResolution:vector ETV
attr recordingmode vector
attr title "Requested video resolution"
vector 115 baselineTestQoS.hostVID[14].app[0] DASHBufferLength:vector ETV
attr recordingmode vector
attr title "Video buffer length (in seconds)"
vector 116 baselineTestQoS.hostVID[14].app[0] DASHVideoPlaybackPointer:vector ETV
attr recordingmode vector
attr title "Video playback pointer"
vector 117 baselineTestQoS.hostVID[14].app[0] DASHVideoBitrate:vector ETV
attr recordingmode vector
attr title "Requested video bitrate"
vector 118 baselineTestQoS.hostVID[14].app[0] DASHVideoResolution:vector ETV
attr recordingmode vector
attr title "Requested video resolution"
vector 119 baselineTestQoS.hostVID[15].app[0] DASHBufferLength:vector ETV
attr recordingmode vector
attr title "Video buffer length (in seconds)"
vector 120 baselineTestQoS.hostVID[15].app[0] DASHVideoPlaybackPointer:vector ETV
attr recordingmode vector
attr title "Video playback pointer"
vector 121 baselineTestQoS.hostVID[15].app[0] DASHVideoBitrate:vector ETV
attr recordingmode vector
attr title "Requested video bitrate"
vector 122 baselineTestQoS.hostVID[15].app[0] DASHVideoResolution:vector ETV
attr recordingmode vector
attr title "Requested video resolution"
vector 123 baselineTestQoS.hostVID[16].app[0] DASHBufferLength:vector ETV
attr recordingmode vector
attr title "Video buffer length (in seconds)"
vector 124 baselineTestQoS.hostVID[16].app[0] DASHVideoPlaybackPointer:vector ETV
attr recordingmode vector
attr title "Video playback pointer"
vector 125 baselineTestQoS.hostVID[16].app[0] DASHVideoBitrate:vector ETV
attr recordingmode vector
attr title "Requested video bitrate"
vector 126 baselineTestQoS.hostVID[16].app[0] DASHVideoResolution:vector ETV
attr recordingmode vector
attr title "Requested video resolution"
vector 127 baselineTestQoS.hostVID[17].app[0] DASHBufferLength:vector ETV
attr recordingmode vector
attr title "Video buffer length (in seconds)"
vector 128 baselineTestQoS.hostVID[17].app[0] DASHVideoPlaybackPointer:vector ETV
attr recordingmode vector
attr title "Video playback pointer"
vector 129 baselineTestQoS.hostVID[17].app[0] DASHVideoBitrate:vector ETV
attr recordingmode vector
attr title "Requested video bitrate"
vector 130 baselineTestQoS.hostVID[17].app[0] DASHVideoResolution:vector ETV
attr recordingmode vector
attr title "Requested video resolution"
vector 131 baselineTestQoS.hostVID[18].app[0] DASHBufferLength:vector ETV
attr recordingmode vector
attr title "Video buffer length (in seconds)"
vector 132 baselineTestQoS.hostVID[18].app[0] DASHVideoPlaybackPointer:vector ETV
attr recordingmode vector
attr title "Video playback pointer"
vector 133 baselineTestQoS.hostVID[18].app[0] DASHVideoBitrate:vector ETV
attr recordingmode vector
attr title "Requested video bitrate"
vector 134 baselineTestQoS.hostVID[18].app[0] DASHVideoResolution:vector ETV
attr recordingmode vector
attr title "Requested video resolution"
vector 135 baselineTestQoS.hostVID[19].app[0] DASHBufferLength:vector ETV
attr recordingmode vector
attr title "Video buffer length (in seconds)"
vector 136 baselineTestQoS.hostVID[19].app[0] DASHVideoPlaybackPointer:vector ETV
attr recordingmode vector
attr title "Video playback pointer"
vector 137 baselineTestQoS.hostVID[19].app[0] DASHVideoBitrate:vector ETV
attr recordingmode vector
attr title "Requested video bitrate"
vector 138 baselineTestQoS.hostVID[19].app[0] DASHVideoResolution:vector ETV
attr recordingmode vector
attr title "Requested video resolution"
vector 139 baselineTestQoS.hostVID[20].app[0] DASHBufferLength:vector ETV
attr recordingmode vector
attr title "Video buffer length (in seconds)"
vector 140 baselineTestQoS.hostVID[20].app[0] DASHVideoPlaybackPointer:vector ETV
attr recordingmode vector
attr title "Video playback pointer"
vector 141 baselineTestQoS.hostVID[20].app[0] DASHVideoBitrate:vector ETV
attr recordingmode vector
attr title "Requested video bitrate"
vector 142 baselineTestQoS.hostVID[20].app[0] DASHVideoResolution:vector ETV
attr recordingmode vector
attr title "Requested video resolution"
vector 143 baselineTestQoS.hostVID[21].app[0] DASHBufferLength:vector ETV
attr recordingmode vector
attr title "Video buffer length (in seconds)"
vector 144 baselineTestQoS.hostVID[21].app[0] DASHVideoPlaybackPointer:vector ETV
attr recordingmode vector
attr title "Video playback pointer"
vector 145 baselineTestQoS.hostVID[21].app[0] DASHVideoBitrate:vector ETV
attr recordingmode vector
attr title "Requested video bitrate"
vector 146 baselineTestQoS.hostVID[21].app[0] DASHVideoResolution:vector ETV
attr recordingmode vector
attr title "Requested video resolution"
vector 147 baselineTestQoS.hostVID[22].app[0] DASHBufferLength:vector ETV
attr recordingmode vector
attr title "Video buffer length (in seconds)"
vector 148 baselineTestQoS.hostVID[22].app[0] DASHVideoPlaybackPointer:vector ETV
attr recordingmode vector
attr title "Video playback pointer"
vector 149 baselineTestQoS.hostVID[22].app[0] DASHVideoBitrate:vector ETV
attr recordingmode vector
attr title "Requested video bitrate"
vector 150 baselineTestQoS.hostVID[22].app[0] DASHVideoResolution:vector ETV
attr recordingmode vector
attr title "Requested video resolution"
vector 151 baselineTestQoS.hostVID[23].app[0] DASHBufferLength:vector ETV
attr recordingmode vector
attr title "Video buffer length (in seconds)"
vector 152 baselineTestQoS.hostVID[23].app[0] DASHVideoPlaybackPointer:vector ETV
attr recordingmode vector
attr title "Video playback pointer"
vector 153 baselineTestQoS.hostVID[23].app[0] DASHVideoBitrate:vector ETV
attr recordingmode vector
attr title "Requested video bitrate"
vector 154 baselineTestQoS.hostVID[23].app[0] DASHVideoResolution:vector ETV
attr recordingmode vector
attr title "Requested video resolution"
vector 155 baselineTestQoS.hostVID[24].app[0] DASHBufferLength:vector ETV
attr recordingmode vector
attr title "Video buffer length (in seconds)"
vector 156 baselineTestQoS.hostVID[24].app[0] DASHVideoPlaybackPointer:vector ETV
attr recordingmode vector
attr title "Video playback pointer"
vector 157 baselineTestQoS.hostVID[24].app[0] DASHVideoBitrate:vector ETV
attr recordingmode vector
attr title "Requested video bitrate"
vector 158 baselineTestQoS.hostVID[24].app[0] DASHVideoResolution:vector ETV
attr recordingmode vector
attr title "Requested video resolution"
vector 159 baselineTestQoS.hostVID[25].app[0] DASHBufferLength:vector ETV
attr recordingmode vector
attr title "Video buffer length (in seconds)"
vector 160 baselineTestQoS.hostVID[25].app[0] DASHVideoPlaybackPointer:vector ETV
attr recordingmode vector
attr title "Video playback pointer"
vector 161 baselineTestQoS.hostVID[25].app[0] DASHVideoBitrate:vector ETV
attr recordingmode vector
attr title "Requested video bitrate"
vector 162 baselineTestQoS.hostVID[25].app[0] DASHVideoResolution:vector ETV
attr recordingmode vector
attr title "Requested video resolution"
vector 163 baselineTestQoS.hostVID[26].app[0] DASHBufferLength:vector ETV
attr recordingmode vector
attr title "Video buffer length (in seconds)"
vector 164 baselineTestQoS.hostVID[26].app[0] DASHVideoPlaybackPointer:vector ETV
attr recordingmode vector
attr title "Video playback pointer"
vector 165 baselineTestQoS.hostVID[26].app[0] DASHVideoBitrate:vector ETV
attr recordingmode vector
attr title "Requested video bitrate"
vector 166 baselineTestQoS.hostVID[26].app[0] DASHVideoResolution:vector ETV
attr recordingmode vector
attr title "Requested video resolution"
vector 167 baselineTestQoS.hostVID[27].app[0] DASHBufferLength:vector ETV
attr recordingmode vector
attr title "Video buffer length (in seconds)"
vector 168 baselineTestQoS.hostVID[27].app[0] DASHVideoPlaybackPointer:vector ETV
attr recordingmode vector
attr title "Video playback pointer"
vector 169 baselineTestQoS.hostVID[27].app[0] DASHVideoBitrate:vector ETV
attr recordingmode vector
attr title "Requested video bitrate"
vector 170 baselineTestQoS.hostVID[27].app[0] DASHVideoResolution:vector ETV
attr recordingmode vector
attr title "Requested video resolution"
vector 171 baselineTestQoS.hostVID[28].app[0] DASHBufferLength:vector ETV
attr recordingmode vector
attr title "Video buffer length (in seconds)"
vector 172 baselineTestQoS.hostVID[28].app[0] DASHVideoPlaybackPointer:vector ETV
attr recordingmode vector
attr title "Video playback pointer"
vector 173 baselineTestQoS.hostVID[28].app[0] DASHVideoBitrate:vector ETV
attr recordingmode vector
attr title "Requested video bitrate"
vector 174 baselineTestQoS.hostVID[28].app[0] DASHVideoResolution:vector ETV
attr recordingmode vector
attr title "Requested video resolution"
vector 175 baselineTestQoS.hostFDO[14].ppp[0].ppp txPk:vector(packetBytes) ETV
attr interpolationmode none
attr recordingmode vector(packetBytes)
attr source packetSentToLower
attr title "packets transmitted, packetBytes"
vector 176 baselineTestQoS.router0.ppp[44].ppp rxPkOk:vector(packetBytes) ETV
attr interpolationmode none
attr recordingmode vector(packetBytes)
attr source rxPkOk
attr title "packets received OK, packetBytes"
vector 177 baselineTestQoS.router0.ppp[0].ppp txPk:vector(packetBytes) ETV
attr interpolationmode none
attr recordingmode vector(packetBytes)
attr source packetSentToLower
attr title "packets transmitted, packetBytes"
vector 178 baselineTestQoS.hostFDO[21].ppp[0].ppp txPk:vector(packetBytes) ETV
attr interpolationmode none
attr recordingmode vector(packetBytes)
attr source packetSentToLower
attr title "packets transmitted, packetBytes"
vector 179 baselineTestQoS.router0.ppp[51].ppp rxPkOk:vector(packetBytes) ETV
attr interpolationmode none
attr recordingmode vector(packetBytes)
attr source rxPkOk
attr title "packets received OK, packetBytes"
vector 180 baselineTestQoS.hostFDO[10].ppp[0].ppp txPk:vector(packetBytes) ETV
attr interpolationmode none
attr recordingmode vector(packetBytes)
attr source packetSentToLower
attr title "packets transmitted, packetBytes"
vector 181 baselineTestQoS.router0.ppp[40].ppp rxPkOk:vector(packetBytes) ETV
attr interpolationmode none
attr recordingmode vector(packetBytes)
attr source rxPkOk
attr title "packets received OK, packetBytes"
vector 182 baselineTestQoS.hostFDO[2].ppp[0].ppp txPk:vector(packetBytes) ETV
attr interpolationmode none
attr recordingmode vector(packetBytes)
attr source packetSentToLower
attr title "packets transmitted, packetBytes"
vector 183 baselineTestQoS.router0.ppp[32].ppp rxPkOk:vector(packetBytes) ETV
attr interpolationmode none
attr recordingmode vector(packetBytes)
attr source rxPkOk
attr title "packets received OK, packetBytes"
vector 184 baselineTestQoS.router1.ppp[0].ppp rxPkOk:vector(packetBytes) ETV
attr interpolationmode none
attr recordingmode vector(packetBytes)
attr source rxPkOk
attr title "packets received OK, packetBytes"
vector 185 baselineTestQoS.router1.ppp[3].ppp txPk:vector(packetBytes) ETV
attr interpolationmode none
attr recordingmode vector(packetBytes)
attr source packetSentToLower
attr title "packets transmitted, packetBytes"
vector 186 baselineTestQoS.serverFDO.ppp[0].ppp rxPkOk:vector(packetBytes) ETV
attr interpolationmode none
attr recordingmode vector(packetBytes)
attr source rxPkOk
attr title "packets received OK, packetBytes"
vector 187 baselineTestQoS.serverFDO.ppp[0].ppp txPk:vector(packetBytes) ETV
attr interpolationmode none
attr recordingmode vector(packetBytes)
attr source packetSentToLower
attr title "packets transmitted, packetBytes"
vector 188 baselineTestQoS.router1.ppp[3].ppp rxPkOk:vector(packetBytes) ETV
attr interpolationmode none
attr recordingmode vector(packetBytes)
attr source rxPkOk
attr title "packets received OK, packetBytes"
vector 189 baselineTestQoS.router1.ppp[0].ppp txPk:vector(packetBytes) ETV
attr interpolationmode none
attr recordingmode vector(packetBytes)
attr source packetSentToLower
attr title "packets transmitted, packetBytes"
vector 190 baselineTestQoS.hostVID[10].app[0] DASHVideoPlaybackStatus:vector ETV
attr recordingmode vector
attr title "Video playback status (playing=1, buffering=0)"
vector 191 baselineTestQoS.hostVID[10].ppp[0].ppp txPk:vector(packetBytes) ETV
attr interpolationmode none
attr recordingmode vector(packetBytes)
attr source packetSentToLower
attr title "packets transmitted, packetBytes"
vector 192 baselineTestQoS.router0.ppp[11].ppp rxPkOk:vector(packetBytes) ETV
attr interpolationmode none
attr recordingmode vector(packetBytes)
attr source rxPkOk
attr title "packets received OK, packetBytes"
vector 193 baselineTestQoS.router0.ppp[0].ppp rxPkOk:vector(packetBytes) ETV
attr interpolationmode none
attr recordingmode vector(packetBytes)
attr source rxPkOk
attr title "packets received OK, packetBytes"
vector 194 baselineTestQoS.router0.ppp[44].ppp txPk:vector(packetBytes) ETV
attr interpolationmode none
attr recordingmode vector(packetBytes)
attr source packetSentToLower
attr title "packets transmitted, packetBytes"
vector 195 baselineTestQoS.hostFDO[14].ppp[0].ppp rxPkOk:vector(packetBytes) ETV
attr interpolationmode none
attr recordingmode vector(packetBytes)
attr source rxPkOk
attr title "packets received OK, packetBytes"
vector 196 baselineTestQoS.hostFDO[14].app[0] packetSent:vector(packetBytes) ETV
attr interpolationmode none
attr recordingmode vector(packetBytes)
attr source packetSent
attr title "packets sent, packetBytes"
vector 197 baselineTestQoS.router0.ppp[51].ppp txPk:vector(packetBytes) ETV
attr interpolationmode none
attr recordingmode vector(packetBytes)
attr source packetSentToLower
attr title "packets transmitted, packetBytes"
vector 198 baselineTestQoS.hostFDO[21].ppp[0].ppp rxPkOk:vector(packetBytes) ETV
attr interpolationmode none
attr recordingmode vector(packetBytes)
attr source rxPkOk
attr title "packets received OK, packetBytes"
vector 199 baselineTestQoS.hostFDO[21].app[0] packetSent:vector(packetBytes) ETV
attr interpolationmode none
attr recordingmode vector(packetBytes)
attr source packetSent
attr title "packets sent, packetBytes"
vector 200 baselineTestQoS.router0.ppp[40].ppp txPk:vector(packetBytes) ETV
attr interpolationmode none
attr recordingmode vector(packetBytes)
attr source packetSentToLower
attr title "packets transmitted, packetBytes"
vector 201 baselineTestQoS.hostFDO[10].ppp[0].ppp rxPkOk:vector(packetBytes) ETV
attr interpolationmode none
attr recordingmode vector(packetBytes)
attr source rxPkOk
attr title "packets received OK, packetBytes"
vector 202 baselineTestQoS.hostFDO[10].app[0] packetSent:vector(packetBytes) ETV
attr interpolationmode none
attr recordingmode vector(packetBytes)
attr source packetSent
attr title "packets sent, packetBytes"
vector 203 baselineTestQoS.router0.ppp[32].ppp txPk:vector(packetBytes) ETV
attr interpolationmode none
attr recordingmode vector(packetBytes)
attr source packetSentToLower
attr title "packets transmitted, packetBytes"
vector 204 baselineTestQoS.hostFDO[2].ppp[0].ppp rxPkOk:vector(packetBytes) ETV
attr interpolationmode none
attr recordingmode vector(packetBytes)
attr source rxPkOk
attr title "packets received OK, packetBytes"
vector 205 baselineTestQoS.hostFDO[2].app[0] packetSent:vector(packetBytes) ETV
attr interpolationmode none
attr recordingmode vector(packetBytes)
attr source packetSent
attr title "packets sent, packetBytes"
vector 206 baselineTestQoS.router1.ppp[1].ppp txPk:vector(packetBytes) ETV
attr interpolationmode none
attr recordingmode vector(packetBytes)
attr source packetSentToLower
attr title "packets transmitted, packetBytes"
vector 207 baselineTestQoS.serverVID.ppp[0].ppp rxPkOk:vector(packetBytes) ETV
attr interpolationmode none
attr recordingmode vector(packetBytes)
attr source rxPkOk
attr title "packets received OK, packetBytes"
vector 208 baselineTestQoS.serverVID.ppp[0].ppp txPk:vector(packetBytes) ETV
attr interpolationmode none
attr recordingmode vector(packetBytes)
attr source packetSentToLower
attr title "packets transmitted, packetBytes"
vector 209 baselineTestQoS.router1.ppp[1].ppp rxPkOk:vector(packetBytes) ETV
attr interpolationmode none
attr recordingmode vector(packetBytes)
attr source rxPkOk
attr title "packets received OK, packetBytes"
vector 210 baselineTestQoS.hostVID[25].app[0] DASHVideoPlaybackStatus:vector ETV
attr recordingmode vector
attr title "Video playback status (playing=1, buffering=0)"
vector 211 baselineTestQoS.hostVID[25].ppp[0].ppp txPk:vector(packetBytes) ETV
attr interpolationmode none
attr recordingmode vector(packetBytes)
attr source packetSentToLower
attr title "packets transmitted, packetBytes"
vector 212 baselineTestQoS.router0.ppp[26].ppp rxPkOk:vector(packetBytes) ETV
attr interpolationmode none
attr recordingmode vector(packetBytes)
attr source rxPkOk
attr title "packets received OK, packetBytes"
vector 213 baselineTestQoS.hostVID[13].app[0] DASHVideoPlaybackStatus:vector ETV
attr recordingmode vector
attr title "Video playback status (playing=1, buffering=0)"
vector 214 baselineTestQoS.hostVID[13].ppp[0].ppp txPk:vector(packetBytes) ETV
attr interpolationmode none
attr recordingmode vector(packetBytes)
attr source packetSentToLower
attr title "packets transmitted, packetBytes"
vector 215 baselineTestQoS.router0.ppp[14].ppp rxPkOk:vector(packetBytes) ETV
attr interpolationmode none
attr recordingmode vector(packetBytes)
attr source rxPkOk
attr title "packets received OK, packetBytes"
vector 216 baselineTestQoS.router0.ppp[11].ppp txPk:vector(packetBytes) ETV
attr interpolationmode none
attr recordingmode vector(packetBytes)
attr source packetSentToLower
attr title "packets transmitted, packetBytes"
vector 217 baselineTestQoS.hostVID[10].ppp[0].ppp rxPkOk:vector(packetBytes) ETV
attr interpolationmode none
attr recordingmode vector(packetBytes)
attr source rxPkOk
attr title "packets received OK, packetBytes"
vector 218 baselineTestQoS.hostFDO[14].tcp.conn-195 rtt:vector ETV
attr interpolationmode sample-hold
attr recordingmode vector
vector 219 baselineTestQoS.hostFDO[14].app[0] packetReceived:vector(packetBytes) ETV
attr interpolationmode none
attr recordingmode vector(packetBytes)
attr source packetReceived
attr title "packets received, packetBytes"
vector 220 baselineTestQoS.hostFDO[14].app[0] endToEndDelay:vector ETV
attr interpolationmode none
attr recordingmode vector
attr source dataAge(packetReceived)
attr title "end-to-end delay"
attr unit s
vector 221 baselineTestQoS.hostVID[26].app[0] DASHVideoPlaybackStatus:vector ETV
attr recordingmode vector
attr title "Video playback status (playing=1, buffering=0)"
vector 222 baselineTestQoS.hostVID[26].ppp[0].ppp txPk:vector(packetBytes) ETV
attr interpolationmode none
attr recordingmode vector(packetBytes)
attr source packetSentToLower
attr title "packets transmitted, packetBytes"
vector 223 baselineTestQoS.router0.ppp[27].ppp rxPkOk:vector(packetBytes) ETV
attr interpolationmode none
attr recordingmode vector(packetBytes)
attr source rxPkOk
attr title "packets received OK, packetBytes"
vector 224 baselineTestQoS.hostFDO[21].tcp.conn-196 rtt:vector ETV
attr interpolationmode sample-hold
attr recordingmode vector
vector 225 baselineTestQoS.hostFDO[21].app[0] packetReceived:vector(packetBytes) ETV
attr interpolationmode none
attr recordingmode vector(packetBytes)
attr source packetReceived
attr title "packets received, packetBytes"
vector 226 baselineTestQoS.hostFDO[21].app[0] endToEndDelay:vector ETV
attr interpolationmode none
attr recordingmode vector
attr source dataAge(packetReceived)
attr title "end-to-end delay"
attr unit s
vector 227 baselineTestQoS.hostFDO[10].tcp.conn-197 rtt:vector ETV
attr interpolationmode sample-hold
attr recordingmode vector
vector 228 baselineTestQoS.hostFDO[10].app[0] packetReceived:vector(packetBytes) ETV
attr interpolationmode none
attr recordingmode vector(packetBytes)
attr source packetReceived
attr title "packets received, packetBytes"
vector 229 baselineTestQoS.hostFDO[10].app[0] endToEndDelay:vector ETV
attr interpolationmode none
attr recordingmode vector
attr source dataAge(packetReceived)
attr title "end-to-end delay"
attr unit s
vector 230 baselineTestQoS.hostFDO[2].tcp.conn-198 rtt:vector ETV
attr interpolationmode sample-hold
attr recordingmode vector
vector 231 baselineTestQoS.hostFDO[2].app[0] packetReceived:vector(packetBytes) ETV
attr interpolationmode none
attr recordingmode vector(packetBytes)
attr source packetReceived
attr title "packets received, packetBytes"
vector 232 baselineTestQoS.hostFDO[2].app[0] endToEndDelay:vector ETV
attr interpolationmode none
attr recordingmode vector
attr source dataAge(packetReceived)
attr title "end-to-end delay"
attr unit s
vector 233 baselineTestQoS.hostVID[9].app[0] DASHVideoPlaybackStatus:vector ETV
attr recordingmode vector
attr title "Video playback status (playing=1, buffering=0)"
vector 234 baselineTestQoS.hostVID[9].ppp[0].ppp txPk:vector(packetBytes) ETV
attr interpolationmode none
attr recordingmode vector(packetBytes)
attr source packetSentToLower
attr title "packets transmitted, packetBytes"
vector 235 baselineTestQoS.router0.ppp[10].ppp rxPkOk:vector(packetBytes) ETV
attr interpolationmode none
attr recordingmode vector(packetBytes)
attr source rxPkOk
attr title "packets received OK, packetBytes"
vector 236 baselineTestQoS.hostFDO[0].ppp[0].ppp txPk:vector(packetBytes) ETV
attr interpolationmode none
attr recordingmode vector(packetBytes)
attr source packetSentToLower
attr title "packets transmitted, packetBytes"
vector 237 baselineTestQoS.router0.ppp[30].ppp rxPkOk:vector(packetBytes) ETV
attr interpolationmode none
attr recordingmode vector(packetBytes)
attr source rxPkOk
attr title "packets received OK, packetBytes"
vector 238 baselineTestQoS.hostFDO[27].ppp[0].ppp txPk:vector(packetBytes) ETV
attr interpolationmode none
attr recordingmode vector(packetBytes)
attr source packetSentToLower
attr title "packets transmitted, packetBytes"
vector 239 baselineTestQoS.router0.ppp[57].ppp rxPkOk:vector(packetBytes) ETV
attr interpolationmode none
attr recordingmode vector(packetBytes)
attr source rxPkOk
attr title "packets received OK, packetBytes"
vector 240 baselineTestQoS.serverFDO.tcp.conn-199 rtt:vector ETV
attr interpolationmode sample-hold
attr recordingmode vector
vector 241 baselineTestQoS.hostFDO[4].ppp[0].ppp txPk:vector(packetBytes) ETV
attr interpolationmode none
attr recordingmode vector(packetBytes)
attr source packetSentToLower
attr title "packets transmitted, packetBytes"
vector 242 baselineTestQoS.router0.ppp[34].ppp rxPkOk:vector(packetBytes) ETV
attr interpolationmode none
attr recordingmode vector(packetBytes)
attr source rxPkOk
attr title "packets received OK, packetBytes"
vector 243 baselineTestQoS.hostVID[2].app[0] DASHVideoPlaybackStatus:vector ETV
attr recordingmode vector
attr title "Video playback status (playing=1, buffering=0)"
vector 244 baselineTestQoS.hostVID[2].ppp[0].ppp txPk:vector(packetBytes) ETV
attr interpolationmode none
attr recordingmode vector(packetBytes)
attr source packetSentToLower
attr title "packets transmitted, packetBytes"
vector 245 baselineTestQoS.router0.ppp[3].ppp rxPkOk:vector(packetBytes) ETV
attr interpolationmode none
attr recordingmode vector(packetBytes)
attr source rxPkOk
attr title "packets received OK, packetBytes"
vector 246 baselineTestQoS.serverFDO.tcp.conn-200 rtt:vector ETV
attr interpolationmode sample-hold
attr recordingmode vector
vector 247 baselineTestQoS.hostVID[0].app[0] DASHVideoPlaybackStatus:vector ETV
attr recordingmode vector
attr title "Video playback status (playing=1, buffering=0)"
vector 248 baselineTestQoS.hostVID[0].ppp[0].ppp txPk:vector(packetBytes) ETV
attr interpolationmode none
attr recordingmode vector(packetBytes)
attr source packetSentToLower
attr title "packets transmitted, packetBytes"
vector 249 baselineTestQoS.router0.ppp[1].ppp rxPkOk:vector(packetBytes) ETV
attr interpolationmode none
attr recordingmode vector(packetBytes)
attr source rxPkOk
attr title "packets received OK, packetBytes"
vector 250 baselineTestQoS.router0.ppp[26].ppp txPk:vector(packetBytes) ETV
attr interpolationmode none
attr recordingmode vector(packetBytes)
attr source packetSentToLower
attr title "packets transmitted, packetBytes"
vector 251 baselineTestQoS.hostVID[25].ppp[0].ppp rxPkOk:vector(packetBytes) ETV
attr interpolationmode none
attr recordingmode vector(packetBytes)
attr source rxPkOk
attr title "packets received OK, packetBytes"
vector 252 baselineTestQoS.serverFDO.tcp.conn-201 rtt:vector ETV
attr interpolationmode sample-hold
attr recordingmode vector
vector 253 baselineTestQoS.serverFDO.tcp.conn-202 rtt:vector ETV
attr interpolationmode sample-hold
attr recordingmode vector
vector 254 baselineTestQoS.router0.ppp[14].ppp txPk:vector(packetBytes) ETV
attr interpolationmode none
attr recordingmode vector(packetBytes)
attr source packetSentToLower
attr title "packets transmitted, packetBytes"
vector 255 baselineTestQoS.hostVID[13].ppp[0].ppp rxPkOk:vector(packetBytes) ETV
attr interpolationmode none
attr recordingmode vector(packetBytes)
attr source rxPkOk
attr title "packets received OK, packetBytes"
vector 256 baselineTestQoS.hostVID[10].tcp.conn-203 rtt:vector ETV
attr interpolationmode sample-hold
attr recordingmode vector
vector 257 baselineTestQoS.hostVID[10].app[0] endToEndDelay:vector ETV
attr interpolationmode none
attr recordingmode vector
attr source dataAge(packetReceived)
attr title "end-to-end delay"
attr unit s
vector 258 baselineTestQoS.router0.ppp[27].ppp txPk:vector(packetBytes) ETV
attr interpolationmode none
attr recordingmode vector(packetBytes)
attr source packetSentToLower
attr title "packets transmitted, packetBytes"
vector 259 baselineTestQoS.hostVID[26].ppp[0].ppp rxPkOk:vector(packetBytes) ETV
attr interpolationmode none
attr recordingmode vector(packetBytes)
attr source rxPkOk
attr title "packets received OK, packetBytes"
vector 260 baselineTestQoS.hostVID[23].app[0] DASHVideoPlaybackStatus:vector ETV
attr recordingmode vector
attr title "Video playback status (playing=1, buffering=0)"
vector 261 baselineTestQoS.hostVID[23].ppp[0].ppp txPk:vector(packetBytes) ETV
attr interpolationmode none
attr recordingmode vector(packetBytes)
attr source packetSentToLower
attr title "packets transmitted, packetBytes"
vector 262 baselineTestQoS.router0.ppp[24].ppp rxPkOk:vector(packetBytes) ETV
attr interpolationmode none
attr recordingmode vector(packetBytes)
attr source rxPkOk
attr title "packets received OK, packetBytes"
vector 263 baselineTestQoS.hostFDO[22].ppp[0].ppp txPk:vector(packetBytes) ETV
attr interpolationmode none
attr recordingmode vector(packetBytes)
attr source packetSentToLower
attr title "packets transmitted, packetBytes"
vector 264 baselineTestQoS.router0.ppp[52].ppp rxPkOk:vector(packetBytes) ETV
attr interpolationmode none
attr recordingmode vector(packetBytes)
attr source rxPkOk
attr title "packets received OK, packetBytes"
vector 265 baselineTestQoS.hostVID[21].app[0] DASHVideoPlaybackStatus:vector ETV
attr recordingmode vector
attr title "Video playback status (playing=1, buffering=0)"
vector 266 baselineTestQoS.hostVID[21].ppp[0].ppp txPk:vector(packetBytes) ETV
attr interpolationmode none
attr recordingmode vector(packetBytes)
attr source packetSentToLower
attr title "packets transmitted, packetBytes"
vector 267 baselineTestQoS.router0.ppp[22].ppp rxPkOk:vector(packetBytes) ETV
attr interpolationmode none
attr recordingmode vector(packetBytes)
attr source rxPkOk
attr title "packets received OK, packetBytes"
vector 268 baselineTestQoS.router0.ppp[10].ppp txPk:vector(packetBytes) ETV
attr interpolationmode none
attr recordingmode vector(packetBytes)
attr source packetSentToLower
attr title "packets transmitted, packetBytes"
vector 269 baselineTestQoS.hostVID[9].ppp[0].ppp rxPkOk:vector(packetBytes) ETV
attr interpolationmode none
attr recordingmode vector(packetBytes)
attr source rxPkOk
attr title "packets received OK, packetBytes"
vector 270 baselineTestQoS.router0.ppp[30].ppp txPk:vector(packetBytes) ETV
attr interpolationmode none
attr recordingmode vector(packetBytes)
attr source packetSentToLower
attr title "packets transmitted, packetBytes"
vector 271 baselineTestQoS.hostFDO[0].ppp[0].ppp rxPkOk:vector(packetBytes) ETV
attr interpolationmode none
attr recordingmode vector(packetBytes)
attr source rxPkOk
attr title "packets received OK, packetBytes"
vector 272 baselineTestQoS.hostFDO[0].app[0] packetSent:vector(packetBytes) ETV
attr interpolationmode none
attr recordingmode vector(packetBytes)
attr source packetSent
attr title "packets sent, packetBytes"
vector 273 baselineTestQoS.hostVID[15].app[0] DASHVideoPlaybackStatus:vector ETV
attr recordingmode vector
attr title "Video playback status (playing=1, buffering=0)"
vector 274 baselineTestQoS.hostVID[15].ppp[0].ppp txPk:vector(packetBytes) ETV
attr interpolationmode none
attr recordingmode vector(packetBytes)
attr source packetSentToLower
attr title "packets transmitted, packetBytes"
vector 275 baselineTestQoS.router0.ppp[16].ppp rxPkOk:vector(packetBytes) ETV
attr interpolationmode none
attr recordingmode vector(packetBytes)
attr source rxPkOk
attr title "packets received OK, packetBytes"
vector 276 baselineTestQoS.router0.ppp[57].ppp txPk:vector(packetBytes) ETV
attr interpolationmode none
attr recordingmode vector(packetBytes)
attr source packetSentToLower
attr title "packets transmitted, packetBytes"
vector 277 baselineTestQoS.hostFDO[27].ppp[0].ppp rxPkOk:vector(packetBytes) ETV
attr interpolationmode none
attr recordingmode vector(packetBytes)
attr source rxPkOk
attr title "packets received OK, packetBytes"
vector 278 baselineTestQoS.hostFDO[27].app[0] packetSent:vector(packetBytes) ETV
attr interpolationmode none
attr recordingmode vector(packetBytes)
attr source packetSent
attr title "packets sent, packetBytes"
vector 279 baselineTestQoS.serverVID.tcp.conn-204 rtt:vector ETV
attr interpolationmode sample-hold
attr recordingmode vector
vector 280 baselineTestQoS.hostVID[22].app[0] DASHVideoPlaybackStatus:vector ETV
attr recordingmode vector
attr title "Video playback status (playing=1, buffering=0)"
vector 281 baselineTestQoS.hostVID[22].ppp[0].ppp txPk:vector(packetBytes) ETV
attr interpolationmode none
attr recordingmode vector(packetBytes)
attr source packetSentToLower
attr title "packets transmitted, packetBytes"
vector 282 baselineTestQoS.router0.ppp[23].ppp rxPkOk:vector(packetBytes) ETV
attr interpolationmode none
attr recordingmode vector(packetBytes)
attr source rxPkOk
attr title "packets received OK, packetBytes"
vector 283 baselineTestQoS.router0.ppp[34].ppp txPk:vector(packetBytes) ETV
attr interpolationmode none
attr recordingmode vector(packetBytes)
attr source packetSentToLower
attr title "packets transmitted, packetBytes"
vector 284 baselineTestQoS.hostFDO[4].ppp[0].ppp rxPkOk:vector(packetBytes) ETV
attr interpolationmode none
attr recordingmode vector(packetBytes)
attr source rxPkOk
attr title "packets received OK, packetBytes"
vector 285 baselineTestQoS.hostFDO[4].app[0] packetSent:vector(packetBytes) ETV
attr interpolationmode none
attr recordingmode vector(packetBytes)
attr source packetSent
attr title "packets sent, packetBytes"
vector 286 baselineTestQoS.router0.ppp[3].ppp txPk:vector(packetBytes) ETV
attr interpolationmode none
attr recordingmode vector(packetBytes)
attr source packetSentToLower
attr title "packets transmitted, packetBytes"
vector 287 baselineTestQoS.hostVID[2].ppp[0].ppp rxPkOk:vector(packetBytes) ETV
attr interpolationmode none
attr recordingmode vector(packetBytes)
attr source rxPkOk
attr title "packets received OK, packetBytes"
vector 288 baselineTestQoS.hostVID[17].app[0] DASHVideoPlaybackStatus:vector ETV
attr recordingmode vector
attr title "Video playback status (playing=1, buffering=0)"
vector 289 baselineTestQoS.hostVID[17].ppp[0].ppp txPk:vector(packetBytes) ETV
attr interpolationmode none
attr recordingmode vector(packetBytes)
attr source packetSentToLower
attr title "packets transmitted, packetBytes"
vector 290 baselineTestQoS.router0.ppp[18].ppp rxPkOk:vector(packetBytes) ETV
attr interpolationmode none
attr recordingmode vector(packetBytes)
attr source rxPkOk
attr title "packets received OK, packetBytes"
vector 291 baselineTestQoS.hostVID[8].app[0] DASHVideoPlaybackStatus:vector ETV
attr recordingmode vector
attr title "Video playback status (playing=1, buffering=0)"
vector 292 baselineTestQoS.hostVID[8].ppp[0].ppp txPk:vector(packetBytes) ETV
attr interpolationmode none
attr recordingmode vector(packetBytes)
attr source packetSentToLower
attr title "packets transmitted, packetBytes"
vector 293 baselineTestQoS.router0.ppp[9].ppp rxPkOk:vector(packetBytes) ETV
attr interpolationmode none
attr recordingmode vector(packetBytes)
attr source rxPkOk
attr title "packets received OK, packetBytes"
vector 294 baselineTestQoS.router0.ppp[1].ppp txPk:vector(packetBytes) ETV
attr interpolationmode none
attr recordingmode vector(packetBytes)
attr source packetSentToLower
attr title "packets transmitted, packetBytes"
vector 295 baselineTestQoS.hostVID[0].ppp[0].ppp rxPkOk:vector(packetBytes) ETV
attr interpolationmode none
attr recordingmode vector(packetBytes)
attr source rxPkOk
attr title "packets received OK, packetBytes"
vector 296 baselineTestQoS.hostVID[25].tcp.conn-205 rtt:vector ETV
attr interpolationmode sample-hold
attr recordingmode vector
vector 297 baselineTestQoS.hostVID[25].app[0] endToEndDelay:vector ETV
attr interpolationmode none
attr recordingmode vector
attr source dataAge(packetReceived)
attr title "end-to-end delay"
attr unit s
vector 298 baselineTestQoS.hostVID[13].tcp.conn-206 rtt:vector ETV
attr interpolationmode sample-hold
attr recordingmode vector
vector 299 baselineTestQoS.hostVID[13].app[0] endToEndDelay:vector ETV
attr interpolationmode none
attr recordingmode vector
attr source dataAge(packetReceived)
attr title "end-to-end delay"
attr unit s
vector 300 baselineTestQoS.hostVID[26].tcp.conn-207 rtt:vector ETV
attr interpolationmode sample-hold
attr recordingmode vector
vector 301 baselineTestQoS.hostVID[24].app[0] DASHVideoPlaybackStatus:vector ETV
attr recordingmode vector
attr title "Video playback status (playing=1, buffering=0)"
vector 302 baselineTestQoS.hostVID[24].ppp[0].ppp txPk:vector(packetBytes) ETV
attr interpolationmode none
attr recordingmode vector(packetBytes)
attr source packetSentToLower
attr title "packets transmitted, packetBytes"
vector 303 baselineTestQoS.router0.ppp[25].ppp rxPkOk:vector(packetBytes) ETV
attr interpolationmode none
attr recordingmode vector(packetBytes)
attr source rxPkOk
attr title "packets received OK, packetBytes"
vector 304 baselineTestQoS.hostVID[26].app[0] endToEndDelay:vector ETV
attr interpolationmode none
attr recordingmode vector
attr source dataAge(packetReceived)
attr title "end-to-end delay"
attr unit s
vector 305 baselineTestQoS.router0.ppp[24].ppp txPk:vector(packetBytes) ETV
attr interpolationmode none
attr recordingmode vector(packetBytes)
attr source packetSentToLower
attr title "packets transmitted, packetBytes"
vector 306 baselineTestQoS.hostVID[23].ppp[0].ppp rxPkOk:vector(packetBytes) ETV
attr interpolationmode none
attr recordingmode vector(packetBytes)
attr source rxPkOk
attr title "packets received OK, packetBytes"
vector 307 baselineTestQoS.router0.ppp[52].ppp txPk:vector(packetBytes) ETV
attr interpolationmode none
attr recordingmode vector(packetBytes)
attr source packetSentToLower
attr title "packets transmitted, packetBytes"
vector 308 baselineTestQoS.hostFDO[22].ppp[0].ppp rxPkOk:vector(packetBytes) ETV
attr interpolationmode none
attr recordingmode vector(packetBytes)
attr source rxPkOk
attr title "packets received OK, packetBytes"
vector 309 baselineTestQoS.hostFDO[22].app[0] packetSent:vector(packetBytes) ETV
attr interpolationmode none
attr recordingmode vector(packetBytes)
attr source packetSent
attr title "packets sent, packetBytes"
vector 310 baselineTestQoS.serverVID.tcp.conn-208 rtt:vector ETV
attr interpolationmode sample-hold
attr recordingmode vector
vector 311 baselineTestQoS.router0.ppp[22].ppp txPk:vector(packetBytes) ETV
attr interpolationmode none
attr recordingmode vector(packetBytes)
attr source packetSentToLower
attr title "packets transmitted, packetBytes"
vector 312 baselineTestQoS.hostVID[21].ppp[0].ppp rxPkOk:vector(packetBytes) ETV
attr interpolationmode none
attr recordingmode vector(packetBytes)
attr source rxPkOk
attr title "packets received OK, packetBytes"
vector 313 baselineTestQoS.hostVID[9].tcp.conn-209 rtt:vector ETV
attr interpolationmode sample-hold
attr recordingmode vector
vector 314 baselineTestQoS.hostVID[9].app[0] endToEndDelay:vector ETV
attr interpolationmode none
attr recordingmode vector
attr source dataAge(packetReceived)
attr title "end-to-end delay"
attr unit s
vector 315 baselineTestQoS.hostFDO[0].tcp.conn-210 rtt:vector ETV
attr interpolationmode sample-hold
attr recordingmode vector
vector 316 baselineTestQoS.hostFDO[0].app[0] packetReceived:vector(packetBytes) ETV
attr interpolationmode none
attr recordingmode vector(packetBytes)
attr source packetReceived
attr title "packets received, packetBytes"
vector 317 baselineTestQoS.hostFDO[0].app[0] endToEndDelay:vector ETV
attr interpolationmode none
attr recordingmode vector
attr source dataAge(packetReceived)
attr title "end-to-end delay"
attr unit s
vector 318 baselineTestQoS.router0.ppp[16].ppp txPk:vector(packetBytes) ETV
attr interpolationmode none
attr recordingmode vector(packetBytes)
attr source packetSentToLower
attr title "packets transmitted, packetBytes"
vector 319 baselineTestQoS.hostVID[15].ppp[0].ppp rxPkOk:vector(packetBytes) ETV
attr interpolationmode none
attr recordingmode vector(packetBytes)
attr source rxPkOk
attr title "packets received OK, packetBytes"
vector 320 baselineTestQoS.serverVID.tcp.conn-211 rtt:vector ETV
attr interpolationmode sample-hold
attr recordingmode vector
vector 321 baselineTestQoS.hostFDO[27].tcp.conn-212 rtt:vector ETV
attr interpolationmode sample-hold
attr recordingmode vector
vector 322 baselineTestQoS.hostFDO[27].app[0] packetReceived:vector(packetBytes) ETV
attr interpolationmode none
attr recordingmode vector(packetBytes)
attr source packetReceived
attr title "packets received, packetBytes"
vector 323 baselineTestQoS.hostFDO[27].app[0] endToEndDelay:vector ETV
attr interpolationmode none
attr recordingmode vector
attr source dataAge(packetReceived)
attr title "end-to-end delay"
attr unit s
vector 324 baselineTestQoS.router0.ppp[23].ppp txPk:vector(packetBytes) ETV
attr interpolationmode none
attr recordingmode vector(packetBytes)
attr source packetSentToLower
attr title "packets transmitted, packetBytes"
vector 325 baselineTestQoS.hostVID[22].ppp[0].ppp rxPkOk:vector(packetBytes) ETV
attr interpolationmode none
attr recordingmode vector(packetBytes)
attr source rxPkOk
attr title "packets received OK, packetBytes"
vector 326 baselineTestQoS.hostFDO[4].tcp.conn-213 rtt:vector ETV
attr interpolationmode sample-hold
attr recordingmode vector
vector 327 baselineTestQoS.hostFDO[4].app[0] packetReceived:vector(packetBytes) ETV
attr interpolationmode none
attr recordingmode vector(packetBytes)
attr source packetReceived
attr title "packets received, packetBytes"
vector 328 baselineTestQoS.hostFDO[4].app[0] endToEndDelay:vector ETV
attr interpolationmode none
attr recordingmode vector
attr source dataAge(packetReceived)
attr title "end-to-end delay"
attr unit s
vector 329 baselineTestQoS.hostFDO[13].ppp[0].ppp txPk:vector(packetBytes) ETV
attr interpolationmode none
attr recordingmode vector(packetBytes)
attr source packetSentToLower
attr title "packets transmitted, packetBytes"
vector 330 baselineTestQoS.router0.ppp[43].ppp rxPkOk:vector(packetBytes) ETV
attr interpolationmode none
attr recordingmode vector(packetBytes)
attr source rxPkOk
attr title "packets received OK, packetBytes"
vector 331 baselineTestQoS.serverVID.tcp.conn-214 rtt:vector ETV
attr interpolationmode sample-hold
attr recordingmode vector
vector 332 baselineTestQoS.hostVID[2].tcp.conn-215 rtt:vector ETV
attr interpolationmode sample-hold
attr recordingmode vector
vector 333 baselineTestQoS.hostVID[2].app[0] endToEndDelay:vector ETV
attr interpolationmode none
attr recordingmode vector
attr source dataAge(packetReceived)
attr title "end-to-end delay"
attr unit s
vector 334 baselineTestQoS.router0.ppp[18].ppp txPk:vector(packetBytes) ETV
attr interpolationmode none
attr recordingmode vector(packetBytes)
attr source packetSentToLower
attr title "packets transmitted, packetBytes"
vector 335 baselineTestQoS.hostVID[17].ppp[0].ppp rxPkOk:vector(packetBytes) ETV
attr interpolationmode none
attr recordingmode vector(packetBytes)
attr source rxPkOk
attr title "packets received OK, packetBytes"
vector 336 baselineTestQoS.router0.ppp[9].ppp txPk:vector(packetBytes) ETV
attr interpolationmode none
attr recordingmode vector(packetBytes)
attr source packetSentToLower
attr title "packets transmitted, packetBytes"
vector 337 baselineTestQoS.hostVID[8].ppp[0].ppp rxPkOk:vector(packetBytes) ETV
attr interpolationmode none
attr recordingmode vector(packetBytes)
attr source rxPkOk
attr title "packets received OK, packetBytes"
vector 338 baselineTestQoS.hostVID[0].tcp.conn-216 rtt:vector ETV
attr interpolationmode sample-hold
attr recordingmode vector
vector 339 baselineTestQoS.hostVID[0].app[0] endToEndDelay:vector ETV
attr interpolationmode none
attr recordingmode vector
attr source dataAge(packetReceived)
attr title "end-to-end delay"
attr unit s
vector 340 baselineTestQoS.serverVID.tcp.conn-217 rtt:vector ETV
attr interpolationmode sample-hold
attr recordingmode vector
vector 341 baselineTestQoS.serverFDO.tcp.conn-218 rtt:vector ETV
attr interpolationmode sample-hold
attr recordingmode vector
vector 342 baselineTestQoS.serverFDO.tcp.conn-219 rtt:vector ETV
attr interpolationmode sample-hold
attr recordingmode vector
vector 343 baselineTestQoS.serverFDO.tcp.conn-220 rtt:vector ETV
attr interpolationmode sample-hold
attr recordingmode vector
vector 344 baselineTestQoS.router0.ppp[25].ppp txPk:vector(packetBytes) ETV
attr interpolationmode none
attr recordingmode vector(packetBytes)
attr source packetSentToLower
attr title "packets transmitted, packetBytes"
vector 345 baselineTestQoS.hostVID[24].ppp[0].ppp rxPkOk:vector(packetBytes) ETV
attr interpolationmode none
attr recordingmode vector(packetBytes)
attr source rxPkOk
attr title "packets received OK, packetBytes"
vector 346 baselineTestQoS.serverVID.tcp.conn-221 rtt:vector ETV
attr interpolationmode sample-hold
attr recordingmode vector
vector 347 baselineTestQoS.hostVID[16].app[0] DASHVideoPlaybackStatus:vector ETV
attr recordingmode vector
attr title "Video playback status (playing=1, buffering=0)"
vector 348 baselineTestQoS.hostVID[16].ppp[0].ppp txPk:vector(packetBytes) ETV
attr interpolationmode none
attr recordingmode vector(packetBytes)
attr source packetSentToLower
attr title "packets transmitted, packetBytes"
vector 349 baselineTestQoS.router0.ppp[17].ppp rxPkOk:vector(packetBytes) ETV
attr interpolationmode none
attr recordingmode vector(packetBytes)
attr source rxPkOk
attr title "packets received OK, packetBytes"
vector 350 baselineTestQoS.hostVID[23].tcp.conn-222 rtt:vector ETV
attr interpolationmode sample-hold
attr recordingmode vector
vector 351 baselineTestQoS.hostVID[23].app[0] endToEndDelay:vector ETV
attr interpolationmode none
attr recordingmode vector
attr source dataAge(packetReceived)
attr title "end-to-end delay"
attr unit s
vector 352 baselineTestQoS.hostFDO[22].tcp.conn-223 rtt:vector ETV
attr interpolationmode sample-hold
attr recordingmode vector
vector 353 baselineTestQoS.hostFDO[22].app[0] packetReceived:vector(packetBytes) ETV
attr interpolationmode none
attr recordingmode vector(packetBytes)
attr source packetReceived
attr title "packets received, packetBytes"
vector 354 baselineTestQoS.hostFDO[22].app[0] endToEndDelay:vector ETV
attr interpolationmode none
attr recordingmode vector
attr source dataAge(packetReceived)
attr title "end-to-end delay"
attr unit s
vector 355 baselineTestQoS.serverVID.tcp.conn-224 rtt:vector ETV
attr interpolationmode sample-hold
attr recordingmode vector
vector 356 baselineTestQoS.hostVID[21].tcp.conn-225 rtt:vector ETV
attr interpolationmode sample-hold
attr recordingmode vector
vector 357 baselineTestQoS.hostVID[21].app[0] endToEndDelay:vector ETV
attr interpolationmode none
attr recordingmode vector
attr source dataAge(packetReceived)
attr title "end-to-end delay"
attr unit s
vector 358 baselineTestQoS.hostVID[15].tcp.conn-226 rtt:vector ETV
attr interpolationmode sample-hold
attr recordingmode vector
vector 359 baselineTestQoS.hostVID[15].app[0] endToEndDelay:vector ETV
[...]
524	13425950 14623 39981 1089775 0.792713648463 4.996002377634 371 0.0401371088 1.5741013464 227.99278753533 195.39326786258
525	13440573 23178 41721 1089566 0.803603602564 4.995150845634 746 47 1499 1113902 1669528762
526	13463751 23178 41723 1089568 0.803604110564 4.995162937634 746 47 1499 1113902 1669528762
527	13486929 29 41727 41727 0.803604110564 0.803604110564 1 800 800 800 640000
528	13486958 40 41860 41860 0.804087518564 0.804087518564 1 0.080545616178 0.080545616178 0.080545616178 0.0064875962854937
529	13486998 23643 41908 1089517 0.804219054564 4.994923097634 761 1452 1452 1104972 1604419344
530	13510641 31229 41908 1089517 0.804219054564 4.994923097634 761 0.040597602578 4.231301645648 1705.2485954952 4830.8239941123
531	13541870 641 41977 981475 0.804458987676 4.565838191234 17 0.080238884 0.47125184 3.799537037859 1.3833645422047
532	13542511 21233 41997 1089747 0.804471918175 4.995882457634 730 47 847 35114 2328162
533	13563744 21233 41999 1089749 0.804472426175 4.995882933634 730 47 847 35114 2328162
534	13584977 674 44143 1012327 0.816006681634 4.686039311234 18 0.080239696 0.4710928 3.511409472 1.1899804229906
535	13585651 21175 44587 1090471 0.818006004663 4.997681257634 728 47 847 35020 2323744
536	13606826 21175 44589 1090473 0.818006512663 4.997681733634 728 47 847 35020 2323744
537	13628001 825 45111 1062990 0.820394449351 4.887944271234 22 0.0801418584 0.24138584 4.147691680283 0.88816266277438
538	13628826 11478 45217 1087501 0.82117934709 4.986756445634 370 47 1499 547202 819640282
539	13640304 11478 45224 1087503 0.82117985509 4.986768537634 370 47 1499 547202 819640282
540	13651782 37 47204 47204 0.830673861559 0.830673861559 1 0.080158452 0.080158452 0.080158452 0.0064253774270363
541	13651819 23493 47233 1090937 0.830805397559 4.999599977634 756 1452 1452 1097712 1593877824
542	13675312 31033 47233 1090937 0.830805397559 4.999599977634 756 0.0402104384 4.209005018475 1687.5817203802 4758.0855050548
543	13706345 676 47616 1009680 0.832818022063 4.675235231234 18 0.08023544 0.47064504 3.520963411571 1.1947951570364
544	13707021 825 49709 1070184 0.844223804164 4.917328431234 22 0.080285848622 0.2410204 4.153706979248 0.8901818813895
545	13707846 21033 49900 1090645 0.844941510407 4.998400777634 723 47 847 34785 2312699
546	13728879 21033 49902 1090647 0.844942018407 4.998401253634 723 47 847 34785 2312699
547	13749912 40 50608 50608 0.848519323676 0.848519323676 1 0.080243415742 0.080243415742 0.080243415742 0.0064390057699435
548	13749952 11014 50641 1079832 0.848642847676 4.956752205634 355 47 1499 524189 784588675
549	13760966 11014 50643 1079834 0.848643355676 4.956759881634 355 47 1499 524189 784588675
550	13771980 23375 50665 1089889 0.848650859676 4.996482057634 752 1452 1452 1091904 1585444608
551	13795355 29413 50665 1089889 0.848650859676 4.996482057634 752 0.040298098142 4.1881292961 1671.8589182125 4692.494284364
552	13824768 38 51668 51668 0.854353133148 0.854353133148 1 0.0801170128 0.0801170128 0.0801170128 0.0064187357399954
553	13824806 23312 51708 1089859 0.854484669148 4.996362137634 750 1452 1452 1089000 1581228000
554	13848118 30798 51708 1089859 0.854484669148 4.996362137634 750 0.0401689992 4.182046467686 1664.2097507142 4661.0442046112
555	13878916 38 52829 52829 0.859889048886 0.859889048886 1 0.0801402928 0.0801402928 0.0801402928 0.0064224665300697
556	13878954 23282 52870 1089919 0.860020584886 4.996601977634 749 1452 1452 1087548 1579119696
557	13902236 30756 52870 1089919 0.860020584886 4.996601977634 749 0.0401922792 4.176773671948 1661.635397255 4650.706345551
558	13932992 22843 53250 1090818 0.861848091286 4.999108205634 735 47 1499 1097413 1644811751
559	13955835 22843 53252 1090820 0.861848599286 4.999120297634 735 47 1499 1097413 1644811751
560	13978678 29 53256 53256 0.861848599286 0.861848599286 1 800 800 800 640000
561	13978707 38 53577 53577 0.863155287286 0.863155287286 1 0.0801874112 0.0801874112 0.0801874112 0.0064300209149579
562	13978745 23282 53625 1090997 0.863286823286 4.999839817634 749 1452 1452 1087548 1579119696
563	14002027 30759 53625 1090997 0.863286823286 4.999839817634 749 0.0402393976 4.176792391948 1662.7752067898 4655.9752596739
564	14032786 819 55072 1079254 0.870810147159 4.954387471234 22 0.080215188 0.24105048 4.163792512075 0.89414224654215
565	14033605 20859 55279 1090531 0.871778260421 4.997921097634 717 47 847 34503 2299445
566	14054464 20859 55281 1090533 0.871778768421 4.997921573634 717 47 847 34503 2299445
567	14075323 55 55320 717273 0.872024980441 3.508366537634 2 0 1 1 1
568	14075378 10150 55323 1077477 0.872024980441 4.947094937634 349 47 247 17007 947733
569	14085528 10150 55325 1077479 0.872025488441 4.947095413634 349 47 247 17007 947733
570	14095678 55 57022 799608 0.881137663529 3.837411001634 2 0 1 1 1
571	14095733 10301 57025 1090855 0.881137663529 4.999240217634 354 47 247 17242 958778
572	14106034 10301 57027 1090857 0.881138171529 4.999240693634 354 47 247 17242 958778
573	14116335 40 57563 57563 0.883913983186 0.883913983186 1 0.080309872622 0.080309872622 0.080309872622 0.0064496756405619
574	14116375 23094 57598 1089571 0.884045519186 4.995162937634 743 1452 1452 1078836 1566469872
575	14139469 29788 57598 1089571 0.884045519186 4.995162937634 743 0.040361859022 4.15147927747 1640.1617408791 4562.7440631608
576	14169257 22656 57723 1089740 0.884517187186 4.995870365634 729 47 1499 1088419 1631329745
577	14191913 22656 57725 1089742 0.884517695186 4.995882457634 729 47 1499 1088419 1631329745
578	14214569 29 57729 57729 0.884517695186 0.884517695186 1 800 800 800 640000
579	14214598 825 58736 1083795 0.888673225276 4.972855151234 22 0.080293553976 0.24140648 4.1645023897 0.89440813907259
580	14215423 821 59926 1085229 0.894489418748 4.977605711234 22 0.0801737488 0.24077792 4.163290041286 0.89400366559067
581	14216244 22593 60747 1090464 0.898214954263 4.997669165634 727 47 1499 1085421 1626835743
582	14238837 22593 60749 1090466 0.898215462263 4.997681257634 727 47 1499 1085421 1626835743
583	14261430 29 60753 60753 0.898215462263 0.898215462263 1 800 800 800 640000
584	14261459 820 61092 1087725 0.900025334486 4.987678991234 22 0.0801970288 0.24190248 4.167850685548 0.89502569364313
585	14262279 113 61367 763860 0.90139726789 3.693655081634 3 0.0802174128 0.081044528 0.2421398128 0.019544279014317
586	14262392 14422 61402 1087506 0.90152880389 4.986768537634 366 0.0403226792 1.8010932584 270.94078484788 269.89840363146
587	14276814 815 61848 1088823 0.903291572886 4.992116031234 22 0.08024152 0.2409268 4.169068605548 0.89561477102458
588	14277629 55 64847 741951 0.919424795322 3.607382937634 2 0 1 1 1
589	14277684 10156 64850 1089195 0.919424795322 4.993603977634 349 47 247 17007 947733
590	14287840 10156 64852 1089197 0.919425303322 4.993604453634 349 47 247 17007 947733
591	14297996 98 65474 873402 0.923007041015 4.131169489634 3 100000 229375 554375 113237890625
592	14298094 20571 65574 1090350 0.923522114281 4.997201577634 707 47 847 34033 2277355
593	14318665 20571 65576 1090352 0.923522622281 4.997202053634 707 47 847 34033 2277355
594	14339236 781 65695 1035420 0.924050268786 4.777885071234 21 0.080300128848 0.24125648 3.93420141107 0.84036543167246
595	14340017 22443 66000 1090638 0.925043042858 4.998388685634 722 47 1499 1077926 1615600738
596	14362460 22443 66002 1090640 0.925043550858 4.998400777634 722 47 1499 1077926 1615600738
597	14384903 29 66006 66006 0.925043550858 0.925043550858 1 800 800 800 640000
598	14384932 20512 66273 1089657 0.926387051803 4.995522697634 705 47 847 33939 2272937
599	14405444 20512 66275 1089659 0.926387559803 4.995523173634 705 47 847 33939 2272937
600	14425956 113 66813 617635 0.928976928476 3.111180361634 3 0.0803335728 0.08205168 0.2430888208 0.019699026997566
601	14426069 13841 66859 1079837 0.929108464476 4.956759881634 351 0.0404388392 1.8876049304 258.7462915897 264.46575546456
602	14439910 596 69362 1000957 0.94163317749 4.640872831234 16 0.080267564944 0.45988512 3.415439106544 1.1934191808473
603	14440506 38 69440 69440 0.941966012086 0.941966012086 1 0.0801174128 0.0801174128 0.0801174128 0.0064187998337656
604	14440544 22759 69475 1090823 0.942097548086 4.999120297634 732 1452 1452 1062864 1543278528
605	14463303 30073 69475 1090823 0.942097548086 4.999120297634 732 0.0401693992 4.097192148748 1599.1149356349 4395.4571977036
606	14493376 22257 71436 1090524 0.951890970021 4.997909005634 716 47 1499 1068932 1602118732
607	14515633 22257 71438 1090526 0.951891478021 4.997921097634 716 47 1499 1068932 1602118732
608	14537890 29 71442 71442 0.951891478021 0.951891478021 1 800 800 800 640000
609	14537919 10806 71495 1077470 0.952126703666 4.947082845634 348 47 1499 514880 770719252
610	14548725 10806 71497 1077472 0.952127211666 4.947094937634 348 47 1499 514880 770719252
611	14559531 55 72943 684456 0.960624454611 3.377630169634 2 0 1 1 1
612	14559586 9712 72946 1089717 0.960624454611 4.995762537634 334 47 247 16502 973398
613	14569298 9712 72948 1089719 0.960624962611 4.995763013634 334 47 247 16502 973398
614	14579010 10967 73055 1090848 0.961272231186 4.999228125634 353 47 1499 522363 781937145
615	14589977 10967 73057 1090850 0.961272739186 4.999240217634 353 47 1499 522363 781937145
616	14600944 55 73911 759881 0.964291224016 3.677582345634 2 0 1 1 1
617	14600999 10041 73914 1090411 0.964291224016 4.997441417634 345 47 247 16819 938897
618	14611040 10041 73916 1090413 0.964291732016 4.997441893634 345 47 247 16819 938897
619	14621081 38 74152 74152 0.965111027986 0.965111027986 1 0.0805933328 0.0805933328 0.0805933328 0.0064952852918116
620	14621119 22572 74214 1089745 0.965242563986 4.995882457634 726 1452 1452 1054152 1530628704
621	14643691 29824 74214 1089745 0.965242563986 4.995882457634 726 0.0406453192 4.071285212848 1576.6765462963 4304.1445492925
622	14673515 640 75058 1089975 0.969212838076 4.996768015234 17 0.08026408 0.47152408 3.542860709958 1.2322370132017
623	14674155 38 76977 76977 0.978300584663 0.978300584663 1 0.0800851224 0.0800851224 0.0800851224 0.006413626829823
624	14674193 22510 77005 1090469 0.978432120663 4.997681257634 724 1452 1452 1051248 1526412096
625	14696703 29748 77005 1090469 0.978432120663 4.997681257634 724 0.0401371088 4.059386245771 1566.9879288628 4264.5026774091
626	14726451 776 77734 1051576 0.982102297686 4.841295391234 21 0.0801741488 0.2409904 3.939367242348 0.8415687596864
627	14727227 20222 78585 1091029 0.985768159425 4.999959737634 695 47 847 33469 2250847
628	14747449 20222 78587 1091031 0.985768667425 4.999960213634 695 47 847 33469 2250847
629	14767671 98 78738 838909 0.986294721972 3.992051001634 3 100000 233750 516250 97945312500
630	14767769 20135 80614 1089399 0.996029025135 4.994443417634 692 47 847 33328 2244220
631	14787904 20135 80616 1089401 0.996029533135 4.994443893634 692 47 847 33328 2244220
632	14808039 10812 81315 1089188 0.999554349722 4.993591885634 348 47 1499 515120 771121972
633	14818851 10812 81317 1089190 0.999554857722 4.993603977634 348 47 1499 515120 771121972
634	14829663 98 81375 827938 0.999669817722 3.949996153634 3 100000 208750 505625 92336328125
635	14829761 21949 82152 1090343 1.003757817015 4.997189485634 706 47 1499 1053942 1579648722
636	14851710 21949 82154 1090345 1.003758325015 4.997201577634 706 47 1499 1053942 1579648722
637	14873659 29 82158 82158 1.003758325015 1.003758325015 1 800 800 800 640000
638	14873688 773 82549 1058603 1.005247313586 4.869956271234 21 0.080300128848 0.24059016 3.945359026448 0.84336528523463
639	14874461 38 82589 82589 1.005341043658 1.005341043658 1 0.0802974928 0.0802974928 0.0802974928 0.0064476873499661
640	14874499 22358 82618 1090643 1.005472579658 4.998400777634 719 1452 1452 1043988 1515870576
641	14896857 29542 82618 1090643 1.005472579658 4.998400777634 719 0.0403494792 4.033277677176 1548.8265086636 4191.655338582
642	14926399 21886 82848 1089650 1.006534777276 4.995510605634 704 47 1499 1050944 1575154720
643	14948285 21886 82850 1089652 1.006535285276 4.995522697634 704 47 1499 1050944 1575154720
644	14970171 29 82854 82854 1.006535285276 1.006535285276 1 800 800 800 640000
645	14970200 99 83111 1003952 1.007489685276 4.653024889634 3 100000 252500 602500 136256250000
646	14970299 784 85445 1060446 1.018436870263 4.877511231234 21 0.0801418584 0.24062792 3.939216219371 0.84101997681823
647	14971083 98 88212 822638 1.029431056466 3.928559833634 3 100000 214375 494375 88356640625
648	14971181 38 88790 88790 1.031976600421 1.031976600421 1 0.0800851224 0.0800851224 0.0800851224 0.006413626829823
649	14971219 22172 88812 1090529 1.032108136421 4.997921097634 713 1452 1452 1035276 1503220752
650	14993391 29300 88812 1090529 1.032108136421 4.997921097634 713 0.0401371088 4.005950070013 1526.3465214381 4101.9471110835
651	15022691 114 88841 737536 1.032160838066 3.589550761634 3 0.0800336264 0.081184224 0.2417676584 0.019484531150054
652	15022805 13581 88858 1077475 1.032292374066 4.947094937634 344 0.0401371088 1.5121482664 236.24495258582 212.25737877629
653	15036386 10335 90892 1089710 1.040809116786 4.995750445634 333 47 1499 489512 732421428
654	15046721 10335 90894 1089712 1.040809624786 4.995762537634 333 47 1499 489512 732421428
655	15057056 113 91047 819975 1.041543222386 3.917759641634 3 0.080088928 0.08034864 0.2407080512 0.0193134908112
656	15057169 13782 91082 1090853 1.041674758386 4.999240217634 349 0.0401957864 1.8313743304 253.54717452726 250.92354111595
657	15070951 10690 91664 1090404 1.044609116786 4.997429325634 344 47 1499 508720 761522312
658	15081641 10690 91666 1090406 1.044609624786 4.997441417634 344 47 1499 508720 761522312
659	15092331 779 91922 1068504 1.045477329258 4.910492991234 21 0.08024904 0.24114032 3.945369890776 0.84390594060544
660	15093110 98 92808 965639 1.047842504786 4.502580545634 3 100000 241250 568125 119673828125
661	15093208 97 96227 926768 1.06330338869 4.345928817634 3 100000 276875 543750 114507031250
662	15093305 21576 96755 1091022 1.065802697972 4.999947645634 694 47 1499 1035954 1552684710
663	15114881 21576 96757 1091024 1.065803205972 4.999959737634 694 47 1499 1035954 1552684710
664	15136457 29 96761 96761 1.065803205972 1.065803205972 1 800 800 800 640000
665	15136486 780 98486 1076223 1.072112886021 4.942035711234 21 0.0801418584 0.24188992 3.950064683613 0.84545072146065
666	15137266 591 98554 974095 1.072396747666 4.537024591234 16 0.08023776 0.460008 3.469407237968 1.2158581916302
667	15137857 21483 99359 1089392 1.076278649935 4.994431325634 691 47 1499 1031457 1545943707
668	15159340 21483 99361 1089394 1.076279157935 4.994443417634 691 47 1499 1031457 1545943707
669	15180823 29 99365 99365 1.076279157935 1.076279157935 1 800 800 800 640000
670	15180852 116 100058 762875 1.07959479227 3.689693961634 3 0.080039934548 0.082311024 0.242548526548 0.019613145707491
671	15180968 13589 100100 1089193 1.07972632827 4.993603977634 344 0.040145200948 1.5640661864 238.68039261816 216.43247841515
672	15194557 596 100519 1054786 1.081779131986 4.854366671234 16 0.08030016 0.45755088 3.456485982448 1.205670992723
673	15195153 39 100977 100977 1.083995657815 1.083995657815 1 0.0802373328 0.0802373328 0.0802373328 0.006438029574858
674	15195192 21863 100999 1090348 1.084127193815 4.997201577634 703 1452 1452 1020756 1482137712
675	15217055 28891 100999 1090348 1.084127193815 4.997201577634 703 0.0402893192 3.953363703019 1486.4944466785 3942.895956807
676	15245946 41 101700 101700 1.086659207658 1.086659207658 1 0.080123922382 0.080123922382 0.080123922382 0.0064198429378768
677	15245987 21800 101735 1089655 1.086790743658 4.995522697634 701 1452 1452 1017852 1477921104
678	15267787 28810 101735 1089655 1.086790743658 4.995522697634 701 0.040175908782 3.948907862758 1481.9375965594 3925.9094523007
679	15296597 100 103734 1085313 1.094037079658 4.977884889634 3 100000 273750 623750 147439062500
680	15296697 99 106968 918679 1.106452153634 4.314028401634 3 100000 215000 525625 100587890625
681	15296796 100 108927 1007112 1.114595433634 4.664737425634 3 100000 269375 575000 124844531250
682	15296896 596 110186 1000579 1.11983070187 4.639313871234 16 0.08020016 0.45789328 3.478744743912 1.2247356559875
683	15297492 156 110490 1056064 1.121068521634 4.859584201634 4 0.080258896848 0.081103944 0.323093000848 0.026097665444946
684	15297648 12954 110525 1089715 1.121200057634 4.995762537634 328 0.040364163248 1.3608220344 197.04484865371 157.67607095594
685	15310602 778 111245 1088139 1.124131943415 4.989357871234 21 0.0802940688 0.24116664 3.945519996619 0.84296746636807
686	15311380 117 111433 780085 1.124789801634 3.758295721634 3 0.080180176848 0.080808448 0.241702000848 0.019473515092863
687	15311497 13434 111474 1090409 1.124921337634 4.997441417634 340 0.040285443248 1.5870246344 232.88157669051 208.88822839512
688	15324931 784 111987 1090626 1.126795493258 4.998307711234 21 0.080180658382 0.24101776 3.951692876358 0.84546857824003
689	15325715 99 112172 894634 1.127423113634 4.216917673634 3 100000 215000 506875 93041015625
690	15325814 99 114776 913218 1.136405833634 4.291716033634 3 100000 223125 517500 97566406250
691	15325913 99 114919 980036 1.137110313634 4.560022801634 3 100000 246875 554375 114003515625
692	15326012 41 117289 117289 1.145981801634 1.145981801634 1 0.080178595662 0.080178595662 0.080178595662 0.0064286072023305
693	15326053 21490 117330 1091027 1.146113337634 4.999959737634 691 1452 1452 1003332 1456838064
694	15347543 28400 117330 1091027 1.146113337634 4.999959737634 691 0.040230582062 3.894076982062 1441.2239132448 3765.4900874163
695	15375943 41 120623 120623 1.156418601634 1.156418601634 1 0.080139443699 0.080139443699 0.080139443699 0.0064223304363852
696	15375984 21397 120658 1089397 1.156550137634 4.994443417634 688 1452 1452 998976 1450513152
697	15397381 28277 120658 1089397 1.156550137634 4.994443417634 688 0.040191430099 3.878084710099 1430.5651099881 3724.3233328132
698	15425658 637 121867 1065894 1.161304431234 4.899820111234 17 0.08032008 0.4604244 3.196987416848 1.0377394359393
699	15426295 597 122833 1017810 1.165025711234 4.706045471234 16 0.08032008 0.45745008 3.471798296848 1.2163465121701
700	15426892 99 124041 795048 1.168409433634 3.818883721634 3 100000 183125 443125 69134765625
701	15426991 738 129241 1046205 1.186118087234 4.820510351234 20 0.080235331662 0.2415548 3.714627595662 0.78959142093735
702	15427729 742 131983 1048881 1.196554887234 4.831423071234 20 0.080196179699 0.2408984 3.715064363699 0.78908154756692
703	15428471 100 147341 1074608 1.254174793634 4.935458073634 3 100000 286875 588125 132798828125
704	15428571 99 155161 979220 1.284379593634 4.556781729634 3 100000 226250 525625 100939453125
705	15428670 100 173430 1040209 1.352243033634 4.797225553634 3 100000 244375 551250 112516406250
706	15428770 99 184219 996905 1.392764713634 4.624328457634 3 100000 255000 521250 102664062500
707	15428869 66 208497 597620 1.485815113634 3.036247089634 2 100000 199375 299375 49750390625
708	15428935 66 222123 605467 1.537845353634 3.066792745634 2 100000 197500 297500 49006250000
709	15429001 99 225269 981332 1.550062153634 4.565264153634 3 100000 225000 490000 87850000000
710	15429100 99 233526 978723 1.581230073634 4.554826857634 3 100000 210000 483125 84072265625
711	15429199 66 281425 743289 1.771659273634 3.612777209634 2 100000 242500 342500 68806250000
712	15429265 100 294013 1079837 1.821411033634 4.956759881634 3 100000 255000 507500 98281250000
713	15429365 66 327615 717273 1.956193593634 3.508366537634 2 100000 202500 302500 51006250000
714	15429431 66 330065 799608 1.966011993634 3.837411001634 2 100000 247500 347500 71256250000
715	15429497 66 339599 741951 2.003292073634 3.607382937634 2 100000 210000 310000 54100000000
716	15429563 66 351923 759881 2.050533033634 3.677582345634 2 100000 212500 312500 55156250000
717	15429629 100 351962 1035571 2.050637913634 4.778480257634 3 100000 180625 450625 71525390625

