version 3
run qosFlowsV5Base_R100_Q35_M100_C100-0-20230927-10:00:48-109940
attr configname qosFlowsV5Base_R100_Q35_M100_C100
attr datetime 20230927-10:00:48
attr datetimef 20230927-100048
attr experiment qosFlowsV5Base_R100_Q35_M100_C100
attr inifile QoEStudies.ini
attr iterationvars ""
attr iterationvarsd ""
attr iterationvarsf ""
attr measurement ""
attr network baselineTestQoS
attr processid 109940
attr repetition 0
attr replication #0
attr resultdir results
attr runnumber 0
attr seedset 0
config image-path ../../../Downloads/omnetpp-6.0.1/project/Fordypningsprosjekt/inet4.5/images
config description "Configuration week 38 for qosFlowsV5Base_R100_Q35_M100_C100. All five applications. QoS employed. Guarantee Multiplier: 1.0; Ceil multiplier: 1.0"
config extends liteCbaselineTestTokenQoS_base
config *.configurator.config "xmldoc(\"configs/routing/qosFlowsV5Base_R100_Q35_M100_C100Routing.xml\")"
config *.nVID 47
config *.nLVD 19
config *.nFDO 5
config *.nSSH 10
config *.nVIP 40
config *.router*.ppp[0].queue.typename HtbQueue
config *.router*.ppp[0].queue.numQueues 121
config *.router*.ppp[0].queue.queue[*].typename DropTailQueue
config *.router*.ppp[0].queue.packetCapacity -1
config *.router*.ppp[0].queue.htbHysterisis false
config *.router*.ppp[0].queue.scheduler.adjustHTBTreeValuesForCorectness false
config *.router*.ppp[0].queue.scheduler.checkHTBTreeValuesForCorectness false
config *.router*.ppp[0].queue.htbTreeConfig "xmldoc(\"configs/htbTree/qosFlowsV5Base_R100_Q35_M100_C100HTB.xml\")"
config *.router*.ppp[0].queue.classifier.defaultGateIndex 0
config *.router0.ppp[0].queue.classifier.packetFilters "[expr(ipv4.srcAddress.str() =~ \"10.0.0.0\"),expr(ipv4.srcAddress.str() =~ \"10.0.0.4\"),expr(ipv4.srcAddress.str() =~ \"10.0.0.8\"),expr(ipv4.srcAddress.str() =~ \"10.0.0.12\"),expr(ipv4.srcAddress.str() =~ \"10.0.0.16\"),expr(ipv4.srcAddress.str() =~ \"10.0.0.24\"),expr(ipv4.srcAddress.str() =~ \"10.0.0.28\"),expr(ipv4.srcAddress.str() =~ \"10.0.0.32\"),expr(ipv4.srcAddress.str() =~ \"10.0.0.36\"),expr(ipv4.srcAddress.str() =~ \"10.0.0.40\"),expr(ipv4.srcAddress.str() =~ \"10.0.0.44\"),expr(ipv4.srcAddress.str() =~ \"10.0.0.48\"),expr(ipv4.srcAddress.str() =~ \"10.0.0.52\"),expr(ipv4.srcAddress.str() =~ \"10.0.0.56\"),expr(ipv4.srcAddress.str() =~ \"10.0.0.60\"),expr(ipv4.srcAddress.str() =~ \"10.0.0.64\"),expr(ipv4.srcAddress.str() =~ \"10.0.0.68\"),expr(ipv4.srcAddress.str() =~ \"10.0.0.72\"),expr(ipv4.srcAddress.str() =~ \"10.0.0.76\"),expr(ipv4.srcAddress.str() =~ \"10.0.0.80\"),expr(ipv4.srcAddress.str() =~ \"10.0.0.84\"),expr(ipv4.srcAddress.str() =~ \"10.0.0.88\"),expr(ipv4.srcAddress.str() =~ \"10.0.0.92\"),expr(ipv4.srcAddress.str() =~ \"10.0.0.96\"),expr(ipv4.srcAddress.str() =~ \"10.0.0.100\"),expr(ipv4.srcAddress.str() =~ \"10.0.0.104\"),expr(ipv4.srcAddress.str() =~ \"10.0.0.108\"),expr(ipv4.srcAddress.str() =~ \"10.0.0.112\"),expr(ipv4.srcAddress.str() =~ \"10.0.0.116\"),expr(ipv4.srcAddress.str() =~ \"10.0.0.120\"),expr(ipv4.srcAddress.str() =~ \"10.0.0.124\"),expr(ipv4.srcAddress.str() =~ \"10.0.0.128\"),expr(ipv4.srcAddress.str() =~ \"10.0.0.132\"),expr(ipv4.srcAddress.str() =~ \"10.0.0.136\"),expr(ipv4.srcAddress.str() =~ \"10.0.0.140\"),expr(ipv4.srcAddress.str() =~ \"10.0.0.144\"),expr(ipv4.srcAddress.str() =~ \"10.0.0.148\"),expr(ipv4.srcAddress.str() =~ \"10.0.0.152\"),expr(ipv4.srcAddress.str() =~ \"10.0.0.156\"),expr(ipv4.srcAddress.str() =~ \"10.0.0.160\"),expr(ipv4.srcAddress.str() =~ \"10.0.0.164\"),expr(ipv4.srcAddress.str() =~ \"10.0.0.168\"),expr(ipv4.srcAddress.str() =~ \"10.0.0.172\"),expr(ipv4.srcAddress.str() =~ \"10.0.0.176\"),expr(ipv4.srcAddress.str() =~ \"10.0.0.180\"),expr(ipv4.srcAddress.str() =~ \"10.0.0.184\"),expr(ipv4.srcAddress.str() =~ \"10.1.0.0\"),expr(ipv4.srcAddress.str() =~ \"10.1.0.4\"),expr(ipv4.srcAddress.str() =~ \"10.1.0.8\"),expr(ipv4.srcAddress.str() =~ \"10.1.0.12\"),expr(ipv4.srcAddress.str() =~ \"10.1.0.16\"),expr(ipv4.srcAddress.str() =~ \"10.1.0.20\"),expr(ipv4.srcAddress.str() =~ \"10.1.0.24\"),expr(ipv4.srcAddress.str() =~ \"10.1.0.28\"),expr(ipv4.srcAddress.str() =~ \"10.1.0.32\"),expr(ipv4.srcAddress.str() =~ \"10.1.0.36\"),expr(ipv4.srcAddress.str() =~ \"10.1.0.40\"),expr(ipv4.srcAddress.str() =~ \"10.1.0.44\"),expr(ipv4.srcAddress.str() =~ \"10.1.0.48\"),expr(ipv4.srcAddress.str() =~ \"10.1.0.52\"),expr(ipv4.srcAddress.str() =~ \"10.1.0.56\"),expr(ipv4.srcAddress.str() =~ \"10.1.0.60\"),expr(ipv4.srcAddress.str() =~ \"10.1.0.64\"),expr(ipv4.srcAddress.str() =~ \"10.1.0.68\"),expr(ipv4.srcAddress.str() =~ \"10.1.0.72\"),expr(ipv4.srcAddress.str() =~ \"10.2.0.0\"),expr(ipv4.srcAddress.str() =~ \"10.2.0.4\"),expr(ipv4.srcAddress.str() =~ \"10.2.0.8\"),expr(ipv4.srcAddress.str() =~ \"10.2.0.12\"),expr(ipv4.srcAddress.str() =~ \"10.2.0.16\"),expr(ipv4.srcAddress.str() =~ \"10.3.0.0\"),expr(ipv4.srcAddress.str() =~ \"10.3.0.4\"),expr(ipv4.srcAddress.str() =~ \"10.3.0.8\"),expr(ipv4.srcAddress.str() =~ \"10.3.0.12\"),expr(ipv4.srcAddress.str() =~ \"10.3.0.16\"),expr(ipv4.srcAddress.str() =~ \"10.3.0.20\"),expr(ipv4.srcAddress.str() =~ \"10.3.0.24\"),expr(ipv4.srcAddress.str() =~ \"10.3.0.28\"),expr(ipv4.srcAddress.str() =~ \"10.3.0.32\"),expr(ipv4.srcAddress.str() =~ \"10.3.0.36\"),expr(ipv4.srcAddress.str() =~ \"10.3.0.40\"),expr(ipv4.srcAddress.str() =~ \"10.3.0.44\"),expr(ipv4.srcAddress.str() =~ \"10.3.0.48\"),expr(ipv4.srcAddress.str() =~ \"10.3.0.52\"),expr(ipv4.srcAddress.str() =~ \"10.3.0.56\"),expr(ipv4.srcAddress.str() =~ \"10.3.0.60\"),expr(ipv4.srcAddress.str() =~ \"10.3.0.64\"),expr(ipv4.srcAddress.str() =~ \"10.3.0.68\"),expr(ipv4.srcAddress.str() =~ \"10.3.0.72\"),expr(ipv4.srcAddress.str() =~ \"10.3.0.76\"),expr(ipv4.srcAddress.str() =~ \"10.3.0.80\"),expr(ipv4.srcAddress.str() =~ \"10.3.0.84\"),expr(ipv4.srcAddress.str() =~ \"10.3.0.88\"),expr(ipv4.srcAddress.str() =~ \"10.3.0.92\"),expr(ipv4.srcAddress.str() =~ \"10.3.0.96\"),expr(ipv4.srcAddress.str() =~ \"10.3.0.100\"),expr(ipv4.srcAddress.str() =~ \"10.3.0.104\"),expr(ipv4.srcAddress.str() =~ \"10.3.0.108\"),expr(ipv4.srcAddress.str() =~ \"10.3.0.112\"),expr(ipv4.srcAddress.str() =~ \"10.3.0.116\"),expr(ipv4.srcAddress.str() =~ \"10.3.0.120\"),expr(ipv4.srcAddress.str() =~ \"10.3.0.122\"),expr(ipv4.srcAddress.str() =~ \"10.3.0.124\"),expr(ipv4.srcAddress.str() =~ \"10.3.0.128\"),expr(ipv4.srcAddress.str() =~ \"10.3.0.132\"),expr(ipv4.srcAddress.str() =~ \"10.3.0.136\"),expr(ipv4.srcAddress.str() =~ \"10.3.0.140\"),expr(ipv4.srcAddress.str() =~ \"10.3.0.144\"),expr(ipv4.srcAddress.str() =~ \"10.3.0.148\"),expr(ipv4.srcAddress.str() =~ \"10.3.0.152\"),expr(ipv4.srcAddress.str() =~ \"10.3.0.156\"),expr(ipv4.srcAddress.str() =~ \"10.4.0.0\"),expr(ipv4.srcAddress.str() =~ \"10.4.0.4\"),expr(ipv4.srcAddress.str() =~ \"10.4.0.8\"),expr(ipv4.srcAddress.str() =~ \"10.4.0.12\"),expr(ipv4.srcAddress.str() =~ \"10.4.0.16\"),expr(ipv4.srcAddress.str() =~ \"10.4.0.20\"),expr(ipv4.srcAddress.str() =~ \"10.4.0.24\"),expr(ipv4.srcAddress.str() =~ \"10.4.0.28\"),expr(ipv4.srcAddress.str() =~ \"10.4.0.32\"),expr(ipv4.srcAddress.str() =~ \"10.4.0.36\")]"
config *.router1.ppp[0].queue.classifier.packetFilters "[expr(ipv4.destAddress.str() =~ \"10.0.0.0\"),expr(ipv4.destAddress.str() =~ \"10.0.0.4\"),expr(ipv4.destAddress.str() =~ \"10.0.0.8\"),expr(ipv4.destAddress.str() =~ \"10.0.0.12\"),expr(ipv4.destAddress.str() =~ \"10.0.0.16\"),expr(ipv4.destAddress.str() =~ \"10.0.0.20\"),expr(ipv4.destAddress.str() =~ \"10.0.0.24\"),expr(ipv4.destAddress.str() =~ \"10.0.0.28\"),expr(ipv4.destAddress.str() =~ \"10.0.0.32\"),expr(ipv4.destAddress.str() =~ \"10.0.0.36\"),expr(ipv4.destAddress.str() =~ \"10.0.0.40\"),expr(ipv4.destAddress.str() =~ \"10.0.0.44\"),expr(ipv4.destAddress.str() =~ \"10.0.0.48\"),expr(ipv4.destAddress.str() =~ \"10.0.0.52\"),expr(ipv4.destAddress.str() =~ \"10.0.0.56\"),expr(ipv4.destAddress.str() =~ \"10.0.0.60\"),expr(ipv4.destAddress.str() =~ \"10.0.0.64\"),expr(ipv4.destAddress.str() =~ \"10.0.0.68\"),expr(ipv4.destAddress.str() =~ \"10.0.0.72\"),expr(ipv4.destAddress.str() =~ \"10.0.0.76\"),expr(ipv4.destAddress.str() =~ \"10.0.0.80\"),expr(ipv4.destAddress.str() =~ \"10.0.0.84\"),expr(ipv4.destAddress.str() =~ \"10.0.0.88\"),expr(ipv4.destAddress.str() =~ \"10.0.0.92\"),expr(ipv4.destAddress.str() =~ \"10.0.0.96\"),expr(ipv4.destAddress.str() =~ \"10.0.0.100\"),expr(ipv4.destAddress.str() =~ \"10.0.0.104\"),expr(ipv4.destAddress.str() =~ \"10.0.0.108\"),expr(ipv4.destAddress.str() =~ \"10.0.0.112\"),expr(ipv4.destAddress.str() =~ \"10.0.0.116\"),expr(ipv4.destAddress.str() =~ \"10.0.0.120\"),expr(ipv4.destAddress.str() =~ \"10.0.0.124\"),expr(ipv4.destAddress.str() =~ \"10.0.0.128\"),expr(ipv4.destAddress.str() =~ \"10.0.0.132\"),expr(ipv4.destAddress.str() =~ \"10.0.0.136\"),expr(ipv4.destAddress.str() =~ \"10.0.0.140\"),expr(ipv4.destAddress.str() =~ \"10.0.0.144\"),expr(ipv4.destAddress.str() =~ \"10.0.0.148\"),expr(ipv4.destAddress.str() =~ \"10.0.0.152\"),expr(ipv4.destAddress.str() =~ \"10.0.0.156\"),expr(ipv4.destAddress.str() =~ \"10.0.0.160\"),expr(ipv4.destAddress.str() =~ \"10.0.0.164\"),expr(ipv4.destAddress.str() =~ \"10.0.0.168\"),expr(ipv4.destAddress.str() =~ \"10.0.0.172\"),expr(ipv4.destAddress.str() =~ \"10.0.0.176\"),expr(ipv4.destAddress.str() =~ \"10.0.0.180\"),expr(ipv4.destAddress.str() =~ \"10.0.0.184\"),expr(ipv4.destAddress.str() =~ \"10.1.0.0\"),expr(ipv4.destAddress.str() =~ \"10.1.0.4\"),expr(ipv4.destAddress.str() =~ \"10.1.0.8\"),expr(ipv4.destAddress.str() =~ \"10.1.0.12\"),expr(ipv4.destAddress.str() =~ \"10.1.0.16\"),expr(ipv4.destAddress.str() =~ \"10.1.0.20\"),expr(ipv4.destAddress.str() =~ \"10.1.0.24\"),expr(ipv4.destAddress.str() =~ \"10.1.0.28\"),expr(ipv4.destAddress.str() =~ \"10.1.0.32\"),expr(ipv4.destAddress.str() =~ \"10.1.0.36\"),expr(ipv4.destAddress.str() =~ \"10.1.0.40\"),expr(ipv4.destAddress.str() =~ \"10.1.0.44\"),expr(ipv4.destAddress.str() =~ \"10.1.0.48\"),expr(ipv4.destAddress.str() =~ \"10.1.0.52\"),expr(ipv4.destAddress.str() =~ \"10.1.0.56\"),expr(ipv4.destAddress.str() =~ \"10.1.0.60\"),expr(ipv4.destAddress.str() =~ \"10.1.0.64\"),expr(ipv4.destAddress.str() =~ \"10.1.0.68\"),expr(ipv4.destAddress.str() =~ \"10.1.0.72\"),expr(ipv4.destAddress.str() =~ \"10.2.0.0\"),expr(ipv4.destAddress.str() =~ \"10.2.0.4\"),expr(ipv4.destAddress.str() =~ \"10.2.0.8\"),expr(ipv4.destAddress.str() =~ \"10.2.0.12\"),expr(ipv4.destAddress.str() =~ \"10.3.0.0\"),expr(ipv4.destAddress.str() =~ \"10.3.0.4\"),expr(ipv4.destAddress.str() =~ \"10.3.0.8\"),expr(ipv4.destAddress.str() =~ \"10.3.0.12\"),expr(ipv4.destAddress.str() =~ \"10.3.0.16\"),expr(ipv4.destAddress.str() =~ \"10.3.0.20\"),expr(ipv4.destAddress.str() =~ \"10.3.0.24\"),expr(ipv4.destAddress.str() =~ \"10.3.0.28\"),expr(ipv4.destAddress.str() =~ \"10.3.0.32\"),expr(ipv4.destAddress.str() =~ \"10.3.0.36\"),expr(ipv4.destAddress.str() =~ \"10.3.0.40\"),expr(ipv4.destAddress.str() =~ \"10.3.0.44\"),expr(ipv4.destAddress.str() =~ \"10.3.0.48\"),expr(ipv4.destAddress.str() =~ \"10.3.0.52\"),expr(ipv4.destAddress.str() =~ \"10.3.0.56\"),expr(ipv4.destAddress.str() =~ \"10.3.0.60\"),expr(ipv4.destAddress.str() =~ \"10.3.0.64\"),expr(ipv4.destAddress.str() =~ \"10.3.0.68\"),expr(ipv4.destAddress.str() =~ \"10.3.0.72\"),expr(ipv4.destAddress.str() =~ \"10.3.0.76\"),expr(ipv4.destAddress.str() =~ \"10.3.0.80\"),expr(ipv4.destAddress.str() =~ \"10.3.0.84\"),expr(ipv4.destAddress.str() =~ \"10.3.0.88\"),expr(ipv4.destAddress.str() =~ \"10.3.0.92\"),expr(ipv4.destAddress.str() =~ \"10.3.0.96\"),expr(ipv4.destAddress.str() =~ \"10.3.0.100\"),expr(ipv4.destAddress.str() =~ \"10.3.0.104\"),expr(ipv4.destAddress.str() =~ \"10.3.0.108\"),expr(ipv4.destAddress.str() =~ \"10.3.0.112\"),expr(ipv4.destAddress.str() =~ \"10.3.0.116\"),expr(ipv4.destAddress.str() =~ \"10.3.0.120\"),expr(ipv4.destAddress.str() =~ \"10.3.0.124\"),expr(ipv4.destAddress.str() =~ \"10.3.0.128\"),expr(ipv4.destAddress.str() =~ \"10.3.0.132\"),expr(ipv4.destAddress.str() =~ \"10.3.0.136\"),expr(ipv4.destAddress.str() =~ \"10.3.0.140\"),expr(ipv4.destAddress.str() =~ \"10.3.0.144\"),expr(ipv4.destAddress.str() =~ \"10.3.0.148\"),expr(ipv4.destAddress.str() =~ \"10.3.0.152\"),expr(ipv4.destAddress.str() =~ \"10.3.0.156\"),expr(ipv4.destAddress.str() =~ \"10.4.0.0\"),expr(ipv4.destAddress.str() =~ \"10.4.0.4\"),expr(ipv4.destAddress.str() =~ \"10.4.0.8\"),expr(ipv4.destAddress.str() =~ \"10.4.0.12\"),expr(ipv4.destAddress.str() =~ \"10.4.0.16\"),expr(ipv4.destAddress.str() =~ \"10.4.0.20\"),expr(ipv4.destAddress.str() =~ \"10.4.0.24\"),expr(ipv4.destAddress.str() =~ \"10.4.0.28\"),expr(ipv4.destAddress.str() =~ \"10.4.0.32\"),expr(ipv4.destAddress.str() =~ \"10.4.0.36\")]"
config **.connFIX0.datarate 100000000bps
config **.connFIX0.delay 40ms
config description "All five applications - base configuration without any resource allocation"
config network baselineTestQoS
config sim-time-limit 400s
config output-vector-file results/qosFlowsV5Base_R100_Q35_M100_C100/qosFlowsV5Base_R100_Q35_M100_C100-0.vec
config output-scalar-file results/qosFlowsV5Base_R100_Q35_M100_C100/qosFlowsV5Base_R100_Q35_M100_C100-0.sca
config **.crcMode "\"computed\""
config *.host*.numApps 1
config *.hostFDO[*].hasTcp true
config *.hostFDO[*].app[0].typename TcpFileDownloadApp
config *.hostFDO[*].app[0].localAddress "\"\""
config *.hostFDO[*].app[0].localPort -1
config *.hostFDO[*].app[0].connectAddress "\"serverFDO\""
config *.hostFDO[*].app[0].connectPort 1042
config *.hostFDO[*].app[0].startTime uniform(0.01s,1s)
config *.hostFDO[*].app[0].stopTime -1s
config *.hostFDO[*].app[0].numRequestsPerSession 1
config *.hostFDO[*].app[0].requestLength 800B
config *.hostFDO[*].app[0].replyLength 10000KiB
config *.hostFDO[*].app[0].thinkTime 0.01s
config *.hostFDO[*].app[0].idleInterval 1s
config *.hostFDO[*].app[0].reconnectInterval 1s
config *.hostFDO[*].app[0].stopOperationExtraTime -1s
config *.hostFDO[*].app[0].stopOperationTimeout 2s
config *.serverFDO.hasTcp true
config *.serverFDO.numApps 1
config *.serverFDO.app[0].typename TcpGenericServerApp
config *.serverFDO.app[0].localAddress "\"\""
config *.serverFDO.app[0].localPort 1042
config *.serverFDO.app[0].replyDelay 0s
config *.serverFDO.app[0].stopOperationExtraTime -1s
config *.serverFDO.app[0].stopOperationTimeout 2s
config **.hostVID[*].hasTcp true
config **.hostVID[*].app[0].typename improved5gns.apps.TCPVideoStreamCliAppV2lite
config **.hostVID[*].app[0].localAddress "\"\""
config **.hostVID[*].app[0].localPort -1
config **.hostVID[*].app[0].connectAddress "\"serverVID\""
config **.hostVID[*].app[0].connectPort 1042
config **.hostVID[*].app[0].dataTransferMode "\"object\""
config **.hostVID[*].app[0].startTime uniform(0.01s,1s)
config **.hostVID[*].app[0].stopTime -1s
config **.hostVID[*].app[0].idleInterval 1s
config **.hostVID[*].app[0].requestLength 200B
config **.hostVID[*].app[0].reconnectInterval 1s
config **.hostVID[*].app[0].numRequestsPerSession 1
config **.hostVID[*].app[0].thinkTime 1s
config **.hostVID[*].app[0].video_resolution "\"360 480 720 1080\""
config **.hostVID[*].app[0].manifest_size 100000
config **.hostVID[*].app[0].video_buffer_max_length 40s
config **.hostVID[*].app[0].video_duration int(uniform(240s,320s))
config **.hostVID[*].app[0].segment_length 5s
config **.hostVID[*].app[0].useFlexibleBitrate "\"flexible\""
config *.serverVID.hasTcp true
config *.serverVID.numApps 1
config *.serverVID.app[0].typename TcpGenericServerApp
config *.serverVID.app[0].localAddress "\"\""
config *.serverVID.app[0].localPort 1042
config *.serverVID.app[0].replyDelay 0s
config *.serverVID.app[0].stopOperationExtraTime -1s
config *.serverVID.app[0].stopOperationTimeout 2s
config **.hostLVD[*].hasTcp true
config **.hostLVD[*].app[0].typename TCPLiveVideoStreamCliAppLite
config **.hostLVD[*].app[0].localAddress "\"\""
config **.hostLVD[*].app[0].localPort -1
config **.hostLVD[*].app[0].connectAddress "\"serverLVD\""
config **.hostLVD[*].app[0].connectPort 1043
config **.hostLVD[*].app[0].dataTransferMode "\"object\""
config **.hostLVD[*].app[0].startTime uniform(0.01s,1s)
config **.hostLVD[*].app[0].stopTime -1s
config **.hostLVD[*].app[0].idleInterval 1s
config **.hostLVD[*].app[0].requestLength 200B
config **.hostLVD[*].app[0].reconnectInterval 1s
config **.hostLVD[*].app[0].numRequestsPerSession 1
config **.hostLVD[*].app[0].thinkTime 1s
config **.hostLVD[*].app[0].video_resolution "\"240 360 480 720 1080\""
config **.hostLVD[*].app[0].manifest_size 100000
config **.hostLVD[*].app[0].video_buffer_max_length 6s
config **.hostLVD[*].app[0].video_duration int(uniform(40s,70s))
config **.hostLVD[*].app[0].segment_length 1s
config **.hostLVD[*].app[0].useFlexibleBitrate "\"flexible\""
config **.hostLVD[*].app[0].video_type "\"live\""
config **.hostLVD[*].app[0].delay_threshold 4
config **.hostLVD[*].app[0].speedup_rate 1.05
config *.serverLVD.hasTcp true
config *.serverLVD.numApps 1
config *.serverLVD.app[0].typename TcpGenericServerApp
config *.serverLVD.app[0].localAddress "\"\""
config *.serverLVD.app[0].localPort 1043
config *.serverLVD.app[0].replyDelay 0s
config *.serverLVD.app[0].stopOperationExtraTime -1s
config *.serverLVD.app[0].stopOperationTimeout 2s
config **.hostSSH[*].hasTcp true
config **.hostSSH[*].app[0].typename TcpSimpleSshAppV2lite
config **.hostSSH[*].app[0].localAddress "\"\""
config **.hostSSH[*].app[0].localPort -1
config **.hostSSH[*].app[0].connectAddress "\"serverSSH\""
config **.hostSSH[*].app[0].connectPort 22
config **.hostSSH[*].app[0].startTime uniform(0.01s,1s)
config **.hostSSH[*].app[0].stopTime -1s
config **.hostSSH[*].app[0].numCommands 1
config **.hostSSH[*].app[0].commandLength 10B
config **.hostSSH[*].app[0].keyPressDelay 0.05s
config **.hostSSH[*].app[0].commandOutputLength 500B
config **.hostSSH[*].app[0].thinkTime 1s
config **.hostSSH[*].app[0].idleInterval 1s
config **.hostSSH[*].app[0].reconnectInterval 1s
config **.hostSSH[*].app[0].stopOperationExtraTime -1s
config **.hostSSH[*].app[0].stopOperationTimeout 2s
config *.serverSSH.hasTcp true
config *.serverSSH.numApps 1
config *.serverSSH.app[*].typename TcpGenericServerApp
config *.serverSSH.app[*].localAddress "\"\""
config *.serverSSH.app[*].localPort 22
config *.serverSSH.app[*].replyDelay 0s
config *.serverSSH.app[*].stopOperationExtraTime -1s
config *.serverSSH.app[*].stopOperationTimeout 2s
config **.hostVIP[*].hasUdp true
config **.hostVIP[*].app[0].typename SimpleVoipReceiver
config **.hostVIP[*].app[0].localPort 2000
config **.hostVIP[*].app[0].emodelIe 5
config **.hostVIP[*].app[0].emodelBpl 10
config **.hostVIP[*].app[0].emodelA 5
config **.hostVIP[*].app[0].emodelRo 93.2
config **.hostVIP[*].app[0].playoutDelay 20ms
config **.hostVIP[*].app[0].adaptivePlayoutDelay false
config **.hostVIP[*].app[0].bufferSpace 20
config **.hostVIP[*].app[0].mosSpareTime 1s
config **.serverVIP.hasUdp true
config **.serverVIP.numApps parent.nVIP
config **.serverVIP.app[*].typename SimpleVoipSender
config **.serverVIP.app[*].localPort -1
config **.serverVIP.app[*].destAddress "\"hostVIP[\" + string(index) + \"]\""
config **.serverVIP.app[*].destPort 2000
config **.serverVIP.app[*].talkPacketSize 40B
config **.serverVIP.app[*].talkspurtDuration "weibull(1.423s, 0.824s)"
config **.serverVIP.app[*].silenceDuration "weibull(0.899s, 1.089s)"
config **.serverVIP.app[*].packetizationInterval 20ms
config **.serverVIP.app[*].startTime uniform(0.01s,1s)
config **.serverVIP.app[*].stopTime -1s
config **.hostcVIP[*].hasUdp true
config **.hostcVIP[*].app[0].typename improved5gns.apps.SimpleVoipReceiverCustom
config **.hostcVIP[*].app[0].localPort 2000
config **.hostcVIP[*].app[0].emodelIe 5
config **.hostcVIP[*].app[0].emodelBpl 10
config **.hostcVIP[*].app[0].emodelA 5
config **.hostcVIP[*].app[0].emodelRo 93.2
config **.hostcVIP[*].app[0].playoutDelay 20ms
config **.hostcVIP[*].app[0].adaptivePlayoutDelay false
config **.hostcVIP[*].app[0].bufferSpace 20
config **.hostcVIP[*].app[0].mosSpareTime 1s
config **.servercVIP.hasUdp true
config **.servercVIP.numApps parent.ncVIP
config **.servercVIP.app[*].typename improved5gns.apps.SimpleVoipSenderCustom
config **.servercVIP.app[*].localPort -1
config **.servercVIP.app[*].destPort 2000
config **.servercVIP.app[*].destAddress "\"hostcVIP[\" + string(index) + \"]\""
config **.servercVIP.app[*].talkPacketSize 40B
config **.servercVIP.app[*].talkspurtDuration "weibull(1.423s, 0.824s)"
config **.servercVIP.app[*].silenceDuration "weibull(0.899s, 1.089s)"
config **.servercVIP.app[*].packetizationInterval 2ms
config **.servercVIP.app[*].startTime uniform(0.01s,1s)
config **.servercVIP.app[*].stopTime -1s
config sim-time-limit 250s
config num-rngs 1
config seed-0-mt 5
config output-scalar-file-append false
config record-eventlog false
config *.visualizer.*.interfaceTableVisualizer.displayInterfaceTables true
config **.tcp.typename Tcp
config **.udp.typename Udp
config **.packetCapacity 500
config **.tcp.advertisedWindow 65535
config **.tcp.delayedAcksEnabled false
config **.tcp.nagleEnabled true
config **.tcp.limitedTransmitEnabled false
config **.tcp.increasedIWEnabled false
config **.tcp.sackSupport false
config **.tcp.windowScalingSupport false
config **.tcp.timestampSupport false
config **.tcp.mss 1452
config **.tcp.tcpAlgorithmClass "\"TcpReno\""
config **.tcp.*.*.vector-recording true
config **.tcp.*.rtt.result-recording-modes +vector
config **.tcp.*.*.result-recording-modes -vector
config **.host*.app*.*.vector-recording true
config **.ppp.*xPk*.vector-recording true
config **.vector-recording false

vector 0 baselineTestQoS.hostVID[0].app[0] numActiveSessions:vector ETV
attr interpolationmode sample-hold
attr recordingmode vector
attr source sum(connect)
attr title "number of active sessions"
vector 1 baselineTestQoS.hostVID[1].app[0] numActiveSessions:vector ETV
attr interpolationmode sample-hold
attr recordingmode vector
attr source sum(connect)
attr title "number of active sessions"
vector 2 baselineTestQoS.hostVID[2].app[0] numActiveSessions:vector ETV
attr interpolationmode sample-hold
attr recordingmode vector
attr source sum(connect)
attr title "number of active sessions"
vector 3 baselineTestQoS.hostVID[3].app[0] numActiveSessions:vector ETV
attr interpolationmode sample-hold
attr recordingmode vector
attr source sum(connect)
attr title "number of active sessions"
vector 4 baselineTestQoS.hostVID[4].app[0] numActiveSessions:vector ETV
attr interpolationmode sample-hold
attr recordingmode vector
attr source sum(connect)
attr title "number of active sessions"
vector 5 baselineTestQoS.hostVID[5].app[0] numActiveSessions:vector ETV
attr interpolationmode sample-hold
attr recordingmode vector
attr source sum(connect)
attr title "number of active sessions"
vector 6 baselineTestQoS.hostVID[6].app[0] numActiveSessions:vector ETV
attr interpolationmode sample-hold
attr recordingmode vector
attr source sum(connect)
attr title "number of active sessions"
vector 7 baselineTestQoS.hostVID[7].app[0] numActiveSessions:vector ETV
attr interpolationmode sample-hold
attr recordingmode vector
attr source sum(connect)
attr title "number of active sessions"
vector 8 baselineTestQoS.hostVID[8].app[0] numActiveSessions:vector ETV
attr interpolationmode sample-hold
attr recordingmode vector
attr source sum(connect)
attr title "number of active sessions"
vector 9 baselineTestQoS.hostVID[9].app[0] numActiveSessions:vector ETV
attr interpolationmode sample-hold
attr recordingmode vector
attr source sum(connect)
attr title "number of active sessions"
vector 10 baselineTestQoS.hostVID[10].app[0] numActiveSessions:vector ETV
attr interpolationmode sample-hold
attr recordingmode vector
attr source sum(connect)
attr title "number of active sessions"
vector 11 baselineTestQoS.hostVID[11].app[0] numActiveSessions:vector ETV
attr interpolationmode sample-hold
attr recordingmode vector
attr source sum(connect)
attr title "number of active sessions"
vector 12 baselineTestQoS.hostVID[12].app[0] numActiveSessions:vector ETV
attr interpolationmode sample-hold
attr recordingmode vector
attr source sum(connect)
attr title "number of active sessions"
vector 13 baselineTestQoS.hostVID[13].app[0] numActiveSessions:vector ETV
attr interpolationmode sample-hold
attr recordingmode vector
attr source sum(connect)
attr title "number of active sessions"
vector 14 baselineTestQoS.hostVID[14].app[0] numActiveSessions:vector ETV
attr interpolationmode sample-hold
attr recordingmode vector
attr source sum(connect)
attr title "number of active sessions"
vector 15 baselineTestQoS.hostVID[15].app[0] numActiveSessions:vector ETV
attr interpolationmode sample-hold
attr recordingmode vector
attr source sum(connect)
attr title "number of active sessions"
vector 16 baselineTestQoS.hostVID[16].app[0] numActiveSessions:vector ETV
attr interpolationmode sample-hold
attr recordingmode vector
attr source sum(connect)
attr title "number of active sessions"
vector 17 baselineTestQoS.hostVID[17].app[0] numActiveSessions:vector ETV
attr interpolationmode sample-hold
attr recordingmode vector
attr source sum(connect)
attr title "number of active sessions"
vector 18 baselineTestQoS.hostVID[18].app[0] numActiveSessions:vector ETV
attr interpolationmode sample-hold
attr recordingmode vector
attr source sum(connect)
attr title "number of active sessions"
vector 19 baselineTestQoS.hostVID[19].app[0] numActiveSessions:vector ETV
attr interpolationmode sample-hold
attr recordingmode vector
attr source sum(connect)
attr title "number of active sessions"
vector 20 baselineTestQoS.hostVID[20].app[0] numActiveSessions:vector ETV
attr interpolationmode sample-hold
attr recordingmode vector
attr source sum(connect)
attr title "number of active sessions"
vector 21 baselineTestQoS.hostVID[21].app[0] numActiveSessions:vector ETV
attr interpolationmode sample-hold
attr recordingmode vector
attr source sum(connect)
attr title "number of active sessions"
vector 22 baselineTestQoS.hostVID[22].app[0] numActiveSessions:vector ETV
attr interpolationmode sample-hold
attr recordingmode vector
attr source sum(connect)
attr title "number of active sessions"
vector 23 baselineTestQoS.hostVID[23].app[0] numActiveSessions:vector ETV
attr interpolationmode sample-hold
attr recordingmode vector
attr source sum(connect)
attr title "number of active sessions"
vector 24 baselineTestQoS.hostVID[24].app[0] numActiveSessions:vector ETV
attr interpolationmode sample-hold
attr recordingmode vector
attr source sum(connect)
attr title "number of active sessions"
vector 25 baselineTestQoS.hostVID[25].app[0] numActiveSessions:vector ETV
attr interpolationmode sample-hold
attr recordingmode vector
attr source sum(connect)
attr title "number of active sessions"
vector 26 baselineTestQoS.hostVID[26].app[0] numActiveSessions:vector ETV
attr interpolationmode sample-hold
attr recordingmode vector
attr source sum(connect)
attr title "number of active sessions"
vector 27 baselineTestQoS.hostVID[27].app[0] numActiveSessions:vector ETV
attr interpolationmode sample-hold
attr recordingmode vector
attr source sum(connect)
attr title "number of active sessions"
vector 28 baselineTestQoS.hostVID[28].app[0] numActiveSessions:vector ETV
attr interpolationmode sample-hold
attr recordingmode vector
attr source sum(connect)
attr title "number of active sessions"
vector 29 baselineTestQoS.hostVID[29].app[0] numActiveSessions:vector ETV
attr interpolationmode sample-hold
attr recordingmode vector
attr source sum(connect)
attr title "number of active sessions"
vector 30 baselineTestQoS.hostVID[30].app[0] numActiveSessions:vector ETV
attr interpolationmode sample-hold
attr recordingmode vector
attr source sum(connect)
attr title "number of active sessions"
vector 31 baselineTestQoS.hostVID[31].app[0] numActiveSessions:vector ETV
attr interpolationmode sample-hold
attr recordingmode vector
attr source sum(connect)
attr title "number of active sessions"
vector 32 baselineTestQoS.hostVID[32].app[0] numActiveSessions:vector ETV
attr interpolationmode sample-hold
attr recordingmode vector
attr source sum(connect)
attr title "number of active sessions"
vector 33 baselineTestQoS.hostVID[33].app[0] numActiveSessions:vector ETV
attr interpolationmode sample-hold
attr recordingmode vector
attr source sum(connect)
attr title "number of active sessions"
vector 34 baselineTestQoS.hostVID[34].app[0] numActiveSessions:vector ETV
attr interpolationmode sample-hold
attr recordingmode vector
attr source sum(connect)
attr title "number of active sessions"
vector 35 baselineTestQoS.hostVID[35].app[0] numActiveSessions:vector ETV
attr interpolationmode sample-hold
attr recordingmode vector
attr source sum(connect)
attr title "number of active sessions"
vector 36 baselineTestQoS.hostVID[36].app[0] numActiveSessions:vector ETV
attr interpolationmode sample-hold
attr recordingmode vector
attr source sum(connect)
attr title "number of active sessions"
vector 37 baselineTestQoS.hostVID[37].app[0] numActiveSessions:vector ETV
attr interpolationmode sample-hold
attr recordingmode vector
attr source sum(connect)
attr title "number of active sessions"
vector 38 baselineTestQoS.hostVID[38].app[0] numActiveSessions:vector ETV
attr interpolationmode sample-hold
attr recordingmode vector
attr source sum(connect)
attr title "number of active sessions"
vector 39 baselineTestQoS.hostVID[39].app[0] numActiveSessions:vector ETV
attr interpolationmode sample-hold
attr recordingmode vector
attr source sum(connect)
attr title "number of active sessions"
vector 40 baselineTestQoS.hostVID[40].app[0] numActiveSessions:vector ETV
attr interpolationmode sample-hold
attr recordingmode vector
attr source sum(connect)
attr title "number of active sessions"
vector 41 baselineTestQoS.hostVID[41].app[0] numActiveSessions:vector ETV
attr interpolationmode sample-hold
attr recordingmode vector
attr source sum(connect)
attr title "number of active sessions"
vector 42 baselineTestQoS.hostVID[42].app[0] numActiveSessions:vector ETV
attr interpolationmode sample-hold
attr recordingmode vector
attr source sum(connect)
attr title "number of active sessions"
vector 43 baselineTestQoS.hostVID[43].app[0] numActiveSessions:vector ETV
attr interpolationmode sample-hold
attr recordingmode vector
attr source sum(connect)
attr title "number of active sessions"
vector 44 baselineTestQoS.hostVID[44].app[0] numActiveSessions:vector ETV
attr interpolationmode sample-hold
attr recordingmode vector
attr source sum(connect)
attr title "number of active sessions"
vector 45 baselineTestQoS.hostVID[45].app[0] numActiveSessions:vector ETV
attr interpolationmode sample-hold
attr recordingmode vector
attr source sum(connect)
attr title "number of active sessions"
vector 46 baselineTestQoS.hostVID[46].app[0] numActiveSessions:vector ETV
attr interpolationmode sample-hold
attr recordingmode vector
attr source sum(connect)
attr title "number of active sessions"
vector 47 baselineTestQoS.hostLVD[0].app[0] numActiveSessions:vector ETV
attr interpolationmode sample-hold
attr recordingmode vector
attr source sum(connect)
attr title "number of active sessions"
vector 48 baselineTestQoS.hostLVD[1].app[0] numActiveSessions:vector ETV
attr interpolationmode sample-hold
attr recordingmode vector
attr source sum(connect)
attr title "number of active sessions"
vector 49 baselineTestQoS.hostLVD[2].app[0] numActiveSessions:vector ETV
attr interpolationmode sample-hold
attr recordingmode vector
attr source sum(connect)
attr title "number of active sessions"
vector 50 baselineTestQoS.hostLVD[3].app[0] numActiveSessions:vector ETV
attr interpolationmode sample-hold
attr recordingmode vector
attr source sum(connect)
attr title "number of active sessions"
vector 51 baselineTestQoS.hostLVD[4].app[0] numActiveSessions:vector ETV
attr interpolationmode sample-hold
attr recordingmode vector
attr source sum(connect)
attr title "number of active sessions"
vector 52 baselineTestQoS.hostLVD[5].app[0] numActiveSessions:vector ETV
attr interpolationmode sample-hold
attr recordingmode vector
attr source sum(connect)
attr title "number of active sessions"
vector 53 baselineTestQoS.hostLVD[6].app[0] numActiveSessions:vector ETV
attr interpolationmode sample-hold
attr recordingmode vector
attr source sum(connect)
attr title "number of active sessions"
vector 54 baselineTestQoS.hostLVD[7].app[0] numActiveSessions:vector ETV
attr interpolationmode sample-hold
attr recordingmode vector
attr source sum(connect)
attr title "number of active sessions"
vector 55 baselineTestQoS.hostLVD[8].app[0] numActiveSessions:vector ETV
attr interpolationmode sample-hold
attr recordingmode vector
attr source sum(connect)
attr title "number of active sessions"
vector 56 baselineTestQoS.hostLVD[9].app[0] numActiveSessions:vector ETV
attr interpolationmode sample-hold
attr recordingmode vector
attr source sum(connect)
attr title "number of active sessions"
vector 57 baselineTestQoS.hostLVD[10].app[0] numActiveSessions:vector ETV
attr interpolationmode sample-hold
attr recordingmode vector
attr source sum(connect)
attr title "number of active sessions"
vector 58 baselineTestQoS.hostLVD[11].app[0] numActiveSessions:vector ETV
attr interpolationmode sample-hold
attr recordingmode vector
attr source sum(connect)
attr title "number of active sessions"
vector 59 baselineTestQoS.hostLVD[12].app[0] numActiveSessions:vector ETV
attr interpolationmode sample-hold
attr recordingmode vector
attr source sum(connect)
attr title "number of active sessions"
vector 60 baselineTestQoS.hostLVD[13].app[0] numActiveSessions:vector ETV
attr interpolationmode sample-hold
attr recordingmode vector
attr source sum(connect)
attr title "number of active sessions"
vector 61 baselineTestQoS.hostLVD[14].app[0] numActiveSessions:vector ETV
attr interpolationmode sample-hold
attr recordingmode vector
attr source sum(connect)
attr title "number of active sessions"
vector 62 baselineTestQoS.hostLVD[15].app[0] numActiveSessions:vector ETV
attr interpolationmode sample-hold
attr recordingmode vector
attr source sum(connect)
attr title "number of active sessions"
vector 63 baselineTestQoS.hostLVD[16].app[0] numActiveSessions:vector ETV
attr interpolationmode sample-hold
attr recordingmode vector
attr source sum(connect)
attr title "number of active sessions"
vector 64 baselineTestQoS.hostLVD[17].app[0] numActiveSessions:vector ETV
attr interpolationmode sample-hold
attr recordingmode vector
attr source sum(connect)
attr title "number of active sessions"
vector 65 baselineTestQoS.hostLVD[18].app[0] numActiveSessions:vector ETV
attr interpolationmode sample-hold
attr recordingmode vector
attr source sum(connect)
attr title "number of active sessions"
vector 66 baselineTestQoS.hostFDO[0].app[0] numActiveSessions:vector ETV
attr interpolationmode sample-hold
attr recordingmode vector
attr source sum(connect)
attr title "number of active sessions"
vector 67 baselineTestQoS.hostFDO[1].app[0] numActiveSessions:vector ETV
attr interpolationmode sample-hold
attr recordingmode vector
attr source sum(connect)
attr title "number of active sessions"
vector 68 baselineTestQoS.hostFDO[2].app[0] numActiveSessions:vector ETV
attr interpolationmode sample-hold
attr recordingmode vector
attr source sum(connect)
attr title "number of active sessions"
vector 69 baselineTestQoS.hostFDO[3].app[0] numActiveSessions:vector ETV
attr interpolationmode sample-hold
attr recordingmode vector
attr source sum(connect)
attr title "number of active sessions"
vector 70 baselineTestQoS.hostFDO[4].app[0] numActiveSessions:vector ETV
attr interpolationmode sample-hold
attr recordingmode vector
attr source sum(connect)
attr title "number of active sessions"
vector 71 baselineTestQoS.hostSSH[0].app[0] numActiveSessions:vector ETV
attr "" ""
attr interpolationmode sample-hold
attr recordingmode vector
attr source sum(connect)
attr title "number of active sessions"
vector 72 baselineTestQoS.hostSSH[1].app[0] numActiveSessions:vector ETV
attr "" ""
attr interpolationmode sample-hold
attr recordingmode vector
attr source sum(connect)
attr title "number of active sessions"
vector 73 baselineTestQoS.hostSSH[2].app[0] numActiveSessions:vector ETV
attr "" ""
attr interpolationmode sample-hold
attr recordingmode vector
attr source sum(connect)
attr title "number of active sessions"
vector 74 baselineTestQoS.hostSSH[3].app[0] numActiveSessions:vector ETV
attr "" ""
attr interpolationmode sample-hold
attr recordingmode vector
attr source sum(connect)
attr title "number of active sessions"
vector 75 baselineTestQoS.hostSSH[4].app[0] numActiveSessions:vector ETV
attr "" ""
attr interpolationmode sample-hold
attr recordingmode vector
attr source sum(connect)
attr title "number of active sessions"
vector 76 baselineTestQoS.hostSSH[5].app[0] numActiveSessions:vector ETV
attr "" ""
attr interpolationmode sample-hold
attr recordingmode vector
attr source sum(connect)
attr title "number of active sessions"
vector 77 baselineTestQoS.hostSSH[6].app[0] numActiveSessions:vector ETV
attr "" ""
attr interpolationmode sample-hold
attr recordingmode vector
attr source sum(connect)
attr title "number of active sessions"
vector 78 baselineTestQoS.hostSSH[7].app[0] numActiveSessions:vector ETV
attr "" ""
attr interpolationmode sample-hold
attr recordingmode vector
attr source sum(connect)
attr title "number of active sessions"
vector 79 baselineTestQoS.hostSSH[8].app[0] numActiveSessions:vector ETV
attr "" ""
attr interpolationmode sample-hold
attr recordingmode vector
attr source sum(connect)
attr title "number of active sessions"
vector 80 baselineTestQoS.hostSSH[9].app[0] numActiveSessions:vector ETV
attr "" ""
attr interpolationmode sample-hold
attr recordingmode vector
attr source sum(connect)
attr title "number of active sessions"
vector 81 baselineTestQoS.hostVID[0].app[0] DASHBufferLength:vector ETV
attr recordingmode vector
attr title "Video buffer length (in seconds)"
vector 82 baselineTestQoS.hostVID[0].app[0] DASHVideoPlaybackPointer:vector ETV
attr recordingmode vector
attr title "Video playback pointer"
vector 83 baselineTestQoS.hostVID[0].app[0] DASHVideoBitrate:vector ETV
attr recordingmode vector
attr title "Requested video bitrate"
vector 84 baselineTestQoS.hostVID[0].app[0] DASHVideoResolution:vector ETV
attr recordingmode vector
attr title "Requested video resolution"
vector 85 baselineTestQoS.hostVID[1].app[0] DASHBufferLength:vector ETV
attr recordingmode vector
attr title "Video buffer length (in seconds)"
vector 86 baselineTestQoS.hostVID[1].app[0] DASHVideoPlaybackPointer:vector ETV
attr recordingmode vector
attr title "Video playback pointer"
vector 87 baselineTestQoS.hostVID[1].app[0] DASHVideoBitrate:vector ETV
attr recordingmode vector
attr title "Requested video bitrate"
vector 88 baselineTestQoS.hostVID[1].app[0] DASHVideoResolution:vector ETV
attr recordingmode vector
attr title "Requested video resolution"
vector 89 baselineTestQoS.hostVID[2].app[0] DASHBufferLength:vector ETV
attr recordingmode vector
attr title "Video buffer length (in seconds)"
vector 90 baselineTestQoS.hostVID[2].app[0] DASHVideoPlaybackPointer:vector ETV
attr recordingmode vector
attr title "Video playback pointer"
vector 91 baselineTestQoS.hostVID[2].app[0] DASHVideoBitrate:vector ETV
attr recordingmode vector
attr title "Requested video bitrate"
vector 92 baselineTestQoS.hostVID[2].app[0] DASHVideoResolution:vector ETV
attr recordingmode vector
attr title "Requested video resolution"
vector 93 baselineTestQoS.hostVID[3].app[0] DASHBufferLength:vector ETV
attr recordingmode vector
attr title "Video buffer length (in seconds)"
vector 94 baselineTestQoS.hostVID[3].app[0] DASHVideoPlaybackPointer:vector ETV
attr recordingmode vector
attr title "Video playback pointer"
vector 95 baselineTestQoS.hostVID[3].app[0] DASHVideoBitrate:vector ETV
attr recordingmode vector
attr title "Requested video bitrate"
vector 96 baselineTestQoS.hostVID[3].app[0] DASHVideoResolution:vector ETV
attr recordingmode vector
attr title "Requested video resolution"
vector 97 baselineTestQoS.hostVID[4].app[0] DASHBufferLength:vector ETV
attr recordingmode vector
attr title "Video buffer length (in seconds)"
vector 98 baselineTestQoS.hostVID[4].app[0] DASHVideoPlaybackPointer:vector ETV
attr recordingmode vector
attr title "Video playback pointer"
vector 99 baselineTestQoS.hostVID[4].app[0] DASHVideoBitrate:vector ETV
attr recordingmode vector
attr title "Requested video bitrate"
vector 100 baselineTestQoS.hostVID[4].app[0] DASHVideoResolution:vector ETV
attr recordingmode vector
attr title "Requested video resolution"
vector 101 baselineTestQoS.hostVID[5].app[0] DASHBufferLength:vector ETV
attr recordingmode vector
attr title "Video buffer length (in seconds)"
vector 102 baselineTestQoS.hostVID[5].app[0] DASHVideoPlaybackPointer:vector ETV
attr recordingmode vector
attr title "Video playback pointer"
vector 103 baselineTestQoS.hostVID[5].app[0] DASHVideoBitrate:vector ETV
attr recordingmode vector
attr title "Requested video bitrate"
vector 104 baselineTestQoS.hostVID[5].app[0] DASHVideoResolution:vector ETV
attr recordingmode vector
attr title "Requested video resolution"
vector 105 baselineTestQoS.hostVID[6].app[0] DASHBufferLength:vector ETV
attr recordingmode vector
attr title "Video buffer length (in seconds)"
vector 106 baselineTestQoS.hostVID[6].app[0] DASHVideoPlaybackPointer:vector ETV
attr recordingmode vector
attr title "Video playback pointer"
vector 107 baselineTestQoS.hostVID[6].app[0] DASHVideoBitrate:vector ETV
attr recordingmode vector
attr title "Requested video bitrate"
vector 108 baselineTestQoS.hostVID[6].app[0] DASHVideoResolution:vector ETV
attr recordingmode vector
attr title "Requested video resolution"
vector 109 baselineTestQoS.hostVID[7].app[0] DASHBufferLength:vector ETV
attr recordingmode vector
attr title "Video buffer length (in seconds)"
vector 110 baselineTestQoS.hostVID[7].app[0] DASHVideoPlaybackPointer:vector ETV
attr recordingmode vector
attr title "Video playback pointer"
vector 111 baselineTestQoS.hostVID[7].app[0] DASHVideoBitrate:vector ETV
attr recordingmode vector
attr title "Requested video bitrate"
vector 112 baselineTestQoS.hostVID[7].app[0] DASHVideoResolution:vector ETV
attr recordingmode vector
attr title "Requested video resolution"
vector 113 baselineTestQoS.hostVID[8].app[0] DASHBufferLength:vector ETV
attr recordingmode vector
attr title "Video buffer length (in seconds)"
vector 114 baselineTestQoS.hostVID[8].app[0] DASHVideoPlaybackPointer:vector ETV
attr recordingmode vector
attr title "Video playback pointer"
vector 115 baselineTestQoS.hostVID[8].app[0] DASHVideoBitrate:vector ETV
attr recordingmode vector
attr title "Requested video bitrate"
vector 116 baselineTestQoS.hostVID[8].app[0] DASHVideoResolution:vector ETV
attr recordingmode vector
attr title "Requested video resolution"
vector 117 baselineTestQoS.hostVID[9].app[0] DASHBufferLength:vector ETV
attr recordingmode vector
attr title "Video buffer length (in seconds)"
vector 118 baselineTestQoS.hostVID[9].app[0] DASHVideoPlaybackPointer:vector ETV
attr recordingmode vector
attr title "Video playback pointer"
vector 119 baselineTestQoS.hostVID[9].app[0] DASHVideoBitrate:vector ETV
attr recordingmode vector
attr title "Requested video bitrate"
vector 120 baselineTestQoS.hostVID[9].app[0] DASHVideoResolution:vector ETV
attr recordingmode vector
attr title "Requested video resolution"
vector 121 baselineTestQoS.hostVID[10].app[0] DASHBufferLength:vector ETV
attr recordingmode vector
attr title "Video buffer length (in seconds)"
vector 122 baselineTestQoS.hostVID[10].app[0] DASHVideoPlaybackPointer:vector ETV
attr recordingmode vector
attr title "Video playback pointer"
vector 123 baselineTestQoS.hostVID[10].app[0] DASHVideoBitrate:vector ETV
attr recordingmode vector
attr title "Requested video bitrate"
vector 124 baselineTestQoS.hostVID[10].app[0] DASHVideoResolution:vector ETV
attr recordingmode vector
attr title "Requested video resolution"
vector 125 baselineTestQoS.hostVID[11].app[0] DASHBufferLength:vector ETV
attr recordingmode vector
attr title "Video buffer length (in seconds)"
vector 126 baselineTestQoS.hostVID[11].app[0] DASHVideoPlaybackPointer:vector ETV
attr recordingmode vector
attr title "Video playback pointer"
vector 127 baselineTestQoS.hostVID[11].app[0] DASHVideoBitrate:vector ETV
attr recordingmode vector
attr title "Requested video bitrate"
vector 128 baselineTestQoS.hostVID[11].app[0] DASHVideoResolution:vector ETV
attr recordingmode vector
attr title "Requested video resolution"
vector 129 baselineTestQoS.hostVID[12].app[0] DASHBufferLength:vector ETV
attr recordingmode vector
attr title "Video buffer length (in seconds)"
vector 130 baselineTestQoS.hostVID[12].app[0] DASHVideoPlaybackPointer:vector ETV
attr recordingmode vector
attr title "Video playback pointer"
vector 131 baselineTestQoS.hostVID[12].app[0] DASHVideoBitrate:vector ETV
attr recordingmode vector
attr title "Requested video bitrate"
vector 132 baselineTestQoS.hostVID[12].app[0] DASHVideoResolution:vector ETV
attr recordingmode vector
attr title "Requested video resolution"
vector 133 baselineTestQoS.hostVID[13].app[0] DASHBufferLength:vector ETV
attr recordingmode vector
attr title "Video buffer length (in seconds)"
vector 134 baselineTestQoS.hostVID[13].app[0] DASHVideoPlaybackPointer:vector ETV
attr recordingmode vector
attr title "Video playback pointer"
vector 135 baselineTestQoS.hostVID[13].app[0] DASHVideoBitrate:vector ETV
attr recordingmode vector
attr title "Requested video bitrate"
vector 136 baselineTestQoS.hostVID[13].app[0] DASHVideoResolution:vector ETV
attr recordingmode vector
attr title "Requested video resolution"
vector 137 baselineTestQoS.hostVID[14].app[0] DASHBufferLength:vector ETV
attr recordingmode vector
attr title "Video buffer length (in seconds)"
vector 138 baselineTestQoS.hostVID[14].app[0] DASHVideoPlaybackPointer:vector ETV
attr recordingmode vector
attr title "Video playback pointer"
vector 139 baselineTestQoS.hostVID[14].app[0] DASHVideoBitrate:vector ETV
attr recordingmode vector
attr title "Requested video bitrate"
vector 140 baselineTestQoS.hostVID[14].app[0] DASHVideoResolution:vector ETV
attr recordingmode vector
attr title "Requested video resolution"
vector 141 baselineTestQoS.hostVID[15].app[0] DASHBufferLength:vector ETV
attr recordingmode vector
attr title "Video buffer length (in seconds)"
vector 142 baselineTestQoS.hostVID[15].app[0] DASHVideoPlaybackPointer:vector ETV
attr recordingmode vector
attr title "Video playback pointer"
vector 143 baselineTestQoS.hostVID[15].app[0] DASHVideoBitrate:vector ETV
attr recordingmode vector
attr title "Requested video bitrate"
vector 144 baselineTestQoS.hostVID[15].app[0] DASHVideoResolution:vector ETV
attr recordingmode vector
attr title "Requested video resolution"
vector 145 baselineTestQoS.hostVID[16].app[0] DASHBufferLength:vector ETV
attr recordingmode vector
attr title "Video buffer length (in seconds)"
vector 146 baselineTestQoS.hostVID[16].app[0] DASHVideoPlaybackPointer:vector ETV
attr recordingmode vector
attr title "Video playback pointer"
vector 147 baselineTestQoS.hostVID[16].app[0] DASHVideoBitrate:vector ETV
attr recordingmode vector
attr title "Requested video bitrate"
vector 148 baselineTestQoS.hostVID[16].app[0] DASHVideoResolution:vector ETV
attr recordingmode vector
attr title "Requested video resolution"
vector 149 baselineTestQoS.hostVID[17].app[0] DASHBufferLength:vector ETV
attr recordingmode vector
attr title "Video buffer length (in seconds)"
vector 150 baselineTestQoS.hostVID[17].app[0] DASHVideoPlaybackPointer:vector ETV
attr recordingmode vector
attr title "Video playback pointer"
vector 151 baselineTestQoS.hostVID[17].app[0] DASHVideoBitrate:vector ETV
attr recordingmode vector
attr title "Requested video bitrate"
vector 152 baselineTestQoS.hostVID[17].app[0] DASHVideoResolution:vector ETV
attr recordingmode vector
attr title "Requested video resolution"
vector 153 baselineTestQoS.hostVID[18].app[0] DASHBufferLength:vector ETV
attr recordingmode vector
attr title "Video buffer length (in seconds)"
vector 154 baselineTestQoS.hostVID[18].app[0] DASHVideoPlaybackPointer:vector ETV
attr recordingmode vector
attr title "Video playback pointer"
vector 155 baselineTestQoS.hostVID[18].app[0] DASHVideoBitrate:vector ETV
attr recordingmode vector
attr title "Requested video bitrate"
vector 156 baselineTestQoS.hostVID[18].app[0] DASHVideoResolution:vector ETV
attr recordingmode vector
attr title "Requested video resolution"
vector 157 baselineTestQoS.hostVID[19].app[0] DASHBufferLength:vector ETV
attr recordingmode vector
attr title "Video buffer length (in seconds)"
vector 158 baselineTestQoS.hostVID[19].app[0] DASHVideoPlaybackPointer:vector ETV
attr recordingmode vector
attr title "Video playback pointer"
vector 159 baselineTestQoS.hostVID[19].app[0] DASHVideoBitrate:vector ETV
attr recordingmode vector
attr title "Requested video bitrate"
vector 160 baselineTestQoS.hostVID[19].app[0] DASHVideoResolution:vector ETV
attr recordingmode vector
attr title "Requested video resolution"
vector 161 baselineTestQoS.hostVID[20].app[0] DASHBufferLength:vector ETV
attr recordingmode vector
attr title "Video buffer length (in seconds)"
vector 162 baselineTestQoS.hostVID[20].app[0] DASHVideoPlaybackPointer:vector ETV
attr recordingmode vector
attr title "Video playback pointer"
vector 163 baselineTestQoS.hostVID[20].app[0] DASHVideoBitrate:vector ETV
attr recordingmode vector
attr title "Requested video bitrate"
vector 164 baselineTestQoS.hostVID[20].app[0] DASHVideoResolution:vector ETV
attr recordingmode vector
attr title "Requested video resolution"
vector 165 baselineTestQoS.hostVID[21].app[0] DASHBufferLength:vector ETV
attr recordingmode vector
attr title "Video buffer length (in seconds)"
vector 166 baselineTestQoS.hostVID[21].app[0] DASHVideoPlaybackPointer:vector ETV
attr recordingmode vector
attr title "Video playback pointer"
vector 167 baselineTestQoS.hostVID[21].app[0] DASHVideoBitrate:vector ETV
attr recordingmode vector
attr title "Requested video bitrate"
vector 168 baselineTestQoS.hostVID[21].app[0] DASHVideoResolution:vector ETV
attr recordingmode vector
attr title "Requested video resolution"
vector 169 baselineTestQoS.hostVID[22].app[0] DASHBufferLength:vector ETV
attr recordingmode vector
attr title "Video buffer length (in seconds)"
vector 170 baselineTestQoS.hostVID[22].app[0] DASHVideoPlaybackPointer:vector ETV
attr recordingmode vector
attr title "Video playback pointer"
vector 171 baselineTestQoS.hostVID[22].app[0] DASHVideoBitrate:vector ETV
attr recordingmode vector
attr title "Requested video bitrate"
vector 172 baselineTestQoS.hostVID[22].app[0] DASHVideoResolution:vector ETV
attr recordingmode vector
attr title "Requested video resolution"
vector 173 baselineTestQoS.hostVID[23].app[0] DASHBufferLength:vector ETV
attr recordingmode vector
attr title "Video buffer length (in seconds)"
vector 174 baselineTestQoS.hostVID[23].app[0] DASHVideoPlaybackPointer:vector ETV
attr recordingmode vector
attr title "Video playback pointer"
vector 175 baselineTestQoS.hostVID[23].app[0] DASHVideoBitrate:vector ETV
attr recordingmode vector
attr title "Requested video bitrate"
vector 176 baselineTestQoS.hostVID[23].app[0] DASHVideoResolution:vector ETV
attr recordingmode vector
attr title "Requested video resolution"
vector 177 baselineTestQoS.hostVID[24].app[0] DASHBufferLength:vector ETV
attr recordingmode vector
attr title "Video buffer length (in seconds)"
vector 178 baselineTestQoS.hostVID[24].app[0] DASHVideoPlaybackPointer:vector ETV
attr recordingmode vector
attr title "Video playback pointer"
vector 179 baselineTestQoS.hostVID[24].app[0] DASHVideoBitrate:vector ETV
attr recordingmode vector
attr title "Requested video bitrate"
vector 180 baselineTestQoS.hostVID[24].app[0] DASHVideoResolution:vector ETV
attr recordingmode vector
attr title "Requested video resolution"
vector 181 baselineTestQoS.hostVID[25].app[0] DASHBufferLength:vector ETV
attr recordingmode vector
attr title "Video buffer length (in seconds)"
vector 182 baselineTestQoS.hostVID[25].app[0] DASHVideoPlaybackPointer:vector ETV
attr recordingmode vector
attr title "Video playback pointer"
vector 183 baselineTestQoS.hostVID[25].app[0] DASHVideoBitrate:vector ETV
attr recordingmode vector
attr title "Requested video bitrate"
vector 184 baselineTestQoS.hostVID[25].app[0] DASHVideoResolution:vector ETV
attr recordingmode vector
attr title "Requested video resolution"
vector 185 baselineTestQoS.hostVID[26].app[0] DASHBufferLength:vector ETV
attr recordingmode vector
attr title "Video buffer length (in seconds)"
vector 186 baselineTestQoS.hostVID[26].app[0] DASHVideoPlaybackPointer:vector ETV
attr recordingmode vector
attr title "Video playback pointer"
vector 187 baselineTestQoS.hostVID[26].app[0] DASHVideoBitrate:vector ETV
attr recordingmode vector
attr title "Requested video bitrate"
vector 188 baselineTestQoS.hostVID[26].app[0] DASHVideoResolution:vector ETV
attr recordingmode vector
attr title "Requested video resolution"
vector 189 baselineTestQoS.hostVID[27].app[0] DASHBufferLength:vector ETV
attr recordingmode vector
attr title "Video buffer length (in seconds)"
vector 190 baselineTestQoS.hostVID[27].app[0] DASHVideoPlaybackPointer:vector ETV
attr recordingmode vector
attr title "Video playback pointer"
vector 191 baselineTestQoS.hostVID[27].app[0] DASHVideoBitrate:vector ETV
attr recordingmode vector
attr title "Requested video bitrate"
vector 192 baselineTestQoS.hostVID[27].app[0] DASHVideoResolution:vector ETV
attr recordingmode vector
attr title "Requested video resolution"
vector 193 baselineTestQoS.hostVID[28].app[0] DASHBufferLength:vector ETV
attr recordingmode vector
attr title "Video buffer length (in seconds)"
vector 194 baselineTestQoS.hostVID[28].app[0] DASHVideoPlaybackPointer:vector ETV
attr recordingmode vector
attr title "Video playback pointer"
vector 195 baselineTestQoS.hostVID[28].app[0] DASHVideoBitrate:vector ETV
attr recordingmode vector
attr title "Requested video bitrate"
vector 196 baselineTestQoS.hostVID[28].app[0] DASHVideoResolution:vector ETV
attr recordingmode vector
attr title "Requested video resolution"
vector 197 baselineTestQoS.hostVID[29].app[0] DASHBufferLength:vector ETV
attr recordingmode vector
attr title "Video buffer length (in seconds)"
vector 198 baselineTestQoS.hostVID[29].app[0] DASHVideoPlaybackPointer:vector ETV
attr recordingmode vector
attr title "Video playback pointer"
vector 199 baselineTestQoS.hostVID[29].app[0] DASHVideoBitrate:vector ETV
attr recordingmode vector
attr title "Requested video bitrate"
vector 200 baselineTestQoS.hostVID[29].app[0] DASHVideoResolution:vector ETV
attr recordingmode vector
attr title "Requested video resolution"
vector 201 baselineTestQoS.hostVID[30].app[0] DASHBufferLength:vector ETV
attr recordingmode vector
attr title "Video buffer length (in seconds)"
vector 202 baselineTestQoS.hostVID[30].app[0] DASHVideoPlaybackPointer:vector ETV
attr recordingmode vector
attr title "Video playback pointer"
vector 203 baselineTestQoS.hostVID[30].app[0] DASHVideoBitrate:vector ETV
attr recordingmode vector
attr title "Requested video bitrate"
vector 204 baselineTestQoS.hostVID[30].app[0] DASHVideoResolution:vector ETV
attr recordingmode vector
attr title "Requested video resolution"
vector 205 baselineTestQoS.hostVID[31].app[0] DASHBufferLength:vector ETV
attr recordingmode vector
attr title "Video buffer length (in seconds)"
vector 206 baselineTestQoS.hostVID[31].app[0] DASHVideoPlaybackPointer:vector ETV
attr recordingmode vector
attr title "Video playback pointer"
vector 207 baselineTestQoS.hostVID[31].app[0] DASHVideoBitrate:vector ETV
attr recordingmode vector
attr title "Requested video bitrate"
vector 208 baselineTestQoS.hostVID[31].app[0] DASHVideoResolution:vector ETV
attr recordingmode vector
attr title "Requested video resolution"
vector 209 baselineTestQoS.hostVID[32].app[0] DASHBufferLength:vector ETV
attr recordingmode vector
attr title "Video buffer length (in seconds)"
vector 210 baselineTestQoS.hostVID[32].app[0] DASHVideoPlaybackPointer:vector ETV
attr recordingmode vector
attr title "Video playback pointer"
vector 211 baselineTestQoS.hostVID[32].app[0] DASHVideoBitrate:vector ETV
attr recordingmode vector
attr title "Requested video bitrate"
vector 212 baselineTestQoS.hostVID[32].app[0] DASHVideoResolution:vector ETV
attr recordingmode vector
attr title "Requested video resolution"
vector 213 baselineTestQoS.hostVID[33].app[0] DASHBufferLength:vector ETV
attr recordingmode vector
attr title "Video buffer length (in seconds)"
vector 214 baselineTestQoS.hostVID[33].app[0] DASHVideoPlaybackPointer:vector ETV
attr recordingmode vector
attr title "Video playback pointer"
vector 215 baselineTestQoS.hostVID[33].app[0] DASHVideoBitrate:vector ETV
attr recordingmode vector
attr title "Requested video bitrate"
vector 216 baselineTestQoS.hostVID[33].app[0] DASHVideoResolution:vector ETV
attr recordingmode vector
attr title "Requested video resolution"
vector 217 baselineTestQoS.hostVID[34].app[0] DASHBufferLength:vector ETV
attr recordingmode vector
attr title "Video buffer length (in seconds)"
vector 218 baselineTestQoS.hostVID[34].app[0] DASHVideoPlaybackPointer:vector ETV
attr recordingmode vector
attr title "Video playback pointer"
vector 219 baselineTestQoS.hostVID[34].app[0] DASHVideoBitrate:vector ETV
attr recordingmode vector
attr title "Requested video bitrate"
vector 220 baselineTestQoS.hostVID[34].app[0] DASHVideoResolution:vector ETV
attr recordingmode vector
attr title "Requested video resolution"
vector 221 baselineTestQoS.hostVID[35].app[0] DASHBufferLength:vector ETV
attr recordingmode vector
attr title "Video buffer length (in seconds)"
vector 222 baselineTestQoS.hostVID[35].app[0] DASHVideoPlaybackPointer:vector ETV
attr recordingmode vector
attr title "Video playback pointer"
vector 223 baselineTestQoS.hostVID[35].app[0] DASHVideoBitrate:vector ETV
attr recordingmode vector
attr title "Requested video bitrate"
vector 224 baselineTestQoS.hostVID[35].app[0] DASHVideoResolution:vector ETV
attr recordingmode vector
attr title "Requested video resolution"
vector 225 baselineTestQoS.hostVID[36].app[0] DASHBufferLength:vector ETV
attr recordingmode vector
attr title "Video buffer length (in seconds)"
vector 226 baselineTestQoS.hostVID[36].app[0] DASHVideoPlaybackPointer:vector ETV
attr recordingmode vector
attr title "Video playback pointer"
vector 227 baselineTestQoS.hostVID[36].app[0] DASHVideoBitrate:vector ETV
attr recordingmode vector
attr title "Requested video bitrate"
vector 228 baselineTestQoS.hostVID[36].app[0] DASHVideoResolution:vector ETV
attr recordingmode vector
attr title "Requested video resolution"
vector 229 baselineTestQoS.hostVID[37].app[0] DASHBufferLength:vector ETV
attr recordingmode vector
attr title "Video buffer length (in seconds)"
vector 230 baselineTestQoS.hostVID[37].app[0] DASHVideoPlaybackPointer:vector ETV
attr recordingmode vector
attr title "Video playback pointer"
vector 231 baselineTestQoS.hostVID[37].app[0] DASHVideoBitrate:vector ETV
attr recordingmode vector
attr title "Requested video bitrate"
vector 232 baselineTestQoS.hostVID[37].app[0] DASHVideoResolution:vector ETV
attr recordingmode vector
attr title "Requested video resolution"
vector 233 baselineTestQoS.hostVID[38].app[0] DASHBufferLength:vector ETV
attr recordingmode vector
attr title "Video buffer length (in seconds)"
vector 234 baselineTestQoS.hostVID[38].app[0] DASHVideoPlaybackPointer:vector ETV
attr recordingmode vector
attr title "Video playback pointer"
vector 235 baselineTestQoS.hostVID[38].app[0] DASHVideoBitrate:vector ETV
attr recordingmode vector
attr title "Requested video bitrate"
vector 236 baselineTestQoS.hostVID[38].app[0] DASHVideoResolution:vector ETV
attr recordingmode vector
attr title "Requested video resolution"
vector 237 baselineTestQoS.hostVID[39].app[0] DASHBufferLength:vector ETV
attr recordingmode vector
attr title "Video buffer length (in seconds)"
vector 238 baselineTestQoS.hostVID[39].app[0] DASHVideoPlaybackPointer:vector ETV
attr recordingmode vector
attr title "Video playback pointer"
vector 239 baselineTestQoS.hostVID[39].app[0] DASHVideoBitrate:vector ETV
attr recordingmode vector
attr title "Requested video bitrate"
vector 240 baselineTestQoS.hostVID[39].app[0] DASHVideoResolution:vector ETV
attr recordingmode vector
attr title "Requested video resolution"
vector 241 baselineTestQoS.hostVID[40].app[0] DASHBufferLength:vector ETV
attr recordingmode vector
attr title "Video buffer length (in seconds)"
vector 242 baselineTestQoS.hostVID[40].app[0] DASHVideoPlaybackPointer:vector ETV
attr recordingmode vector
attr title "Video playback pointer"
vector 243 baselineTestQoS.hostVID[40].app[0] DASHVideoBitrate:vector ETV
attr recordingmode vector
attr title "Requested video bitrate"
vector 244 baselineTestQoS.hostVID[40].app[0] DASHVideoResolution:vector ETV
attr recordingmode vector
attr title "Requested video resolution"
vector 245 baselineTestQoS.hostVID[41].app[0] DASHBufferLength:vector ETV
attr recordingmode vector
attr title "Video buffer length (in seconds)"
vector 246 baselineTestQoS.hostVID[41].app[0] DASHVideoPlaybackPointer:vector ETV
attr recordingmode vector
attr title "Video playback pointer"
vector 247 baselineTestQoS.hostVID[41].app[0] DASHVideoBitrate:vector ETV
attr recordingmode vector
attr title "Requested video bitrate"
vector 248 baselineTestQoS.hostVID[41].app[0] DASHVideoResolution:vector ETV
attr recordingmode vector
attr title "Requested video resolution"
vector 249 baselineTestQoS.hostVID[42].app[0] DASHBufferLength:vector ETV
attr recordingmode vector
attr title "Video buffer length (in seconds)"
vector 250 baselineTestQoS.hostVID[42].app[0] DASHVideoPlaybackPointer:vector ETV
attr recordingmode vector
attr title "Video playback pointer"
vector 251 baselineTestQoS.hostVID[42].app[0] DASHVideoBitrate:vector ETV
attr recordingmode vector
attr title "Requested video bitrate"
vector 252 baselineTestQoS.hostVID[42].app[0] DASHVideoResolution:vector ETV
attr recordingmode vector
attr title "Requested video resolution"
vector 253 baselineTestQoS.hostVID[43].app[0] DASHBufferLength:vector ETV
attr recordingmode vector
attr title "Video buffer length (in seconds)"
vector 254 baselineTestQoS.hostVID[43].app[0] DASHVideoPlaybackPointer:vector ETV
attr recordingmode vector
attr title "Video playback pointer"
vector 255 baselineTestQoS.hostVID[43].app[0] DASHVideoBitrate:vector ETV
attr recordingmode vector
attr title "Requested video bitrate"
vector 256 baselineTestQoS.hostVID[43].app[0] DASHVideoResolution:vector ETV
attr recordingmode vector
attr title "Requested video resolution"
vector 257 baselineTestQoS.hostVID[44].app[0] DASHBufferLength:vector ETV
attr recordingmode vector
attr title "Video buffer length (in seconds)"
vector 258 baselineTestQoS.hostVID[44].app[0] DASHVideoPlaybackPointer:vector ETV
attr recordingmode vector
attr title "Video playback pointer"
vector 259 baselineTestQoS.hostVID[44].app[0] DASHVideoBitrate:vector ETV
attr recordingmode vector
attr title "Requested video bitrate"
vector 260 baselineTestQoS.hostVID[44].app[0] DASHVideoResolution:vector ETV
attr recordingmode vector
attr title "Requested video resolution"
vector 261 baselineTestQoS.hostVID[45].app[0] DASHBufferLength:vector ETV
attr recordingmode vector
attr title "Video buffer length (in seconds)"
vector 262 baselineTestQoS.hostVID[45].app[0] DASHVideoPlaybackPointer:vector ETV
attr recordingmode vector
attr title "Video playback pointer"
vector 263 baselineTestQoS.hostVID[45].app[0] DASHVideoBitrate:vector ETV
attr recordingmode vector
attr title "Requested video bitrate"
vector 264 baselineTestQoS.hostVID[45].app[0] DASHVideoResolution:vector ETV
attr recordingmode vector
attr title "Requested video resolution"
vector 265 baselineTestQoS.hostVID[46].app[0] DASHBufferLength:vector ETV
attr recordingmode vector
attr title "Video buffer length (in seconds)"
vector 266 baselineTestQoS.hostVID[46].app[0] DASHVideoPlaybackPointer:vector ETV
attr recordingmode vector
attr title "Video playback pointer"
vector 267 baselineTestQoS.hostVID[46].app[0] DASHVideoBitrate:vector ETV
attr recordingmode vector
attr title "Requested video bitrate"
vector 268 baselineTestQoS.hostVID[46].app[0] DASHVideoResolution:vector ETV
attr recordingmode vector
attr title "Requested video resolution"
vector 269 baselineTestQoS.hostLVD[0].app[0] DASHBufferLength:vector ETV
attr recordingmode vector
attr title "Video buffer length (in seconds)"
vector 270 baselineTestQoS.hostLVD[0].app[0] DASHVideoPlaybackPointer:vector ETV
attr recordingmode vector
attr title "Video playback pointer"
vector 271 baselineTestQoS.hostLVD[0].app[0] DASHVideoBitrate:vector ETV
attr recordingmode vector
attr title "Requested video bitrate"
vector 272 baselineTestQoS.hostLVD[0].app[0] DASHVideoResolution:vector ETV
attr recordingmode vector
attr title "Requested video resolution"
vector 273 baselineTestQoS.hostLVD[1].app[0] DASHBufferLength:vector ETV
attr recordingmode vector
attr title "Video buffer length (in seconds)"
vector 274 baselineTestQoS.hostLVD[1].app[0] DASHVideoPlaybackPointer:vector ETV
attr recordingmode vector
attr title "Video playback pointer"
vector 275 baselineTestQoS.hostLVD[1].app[0] DASHVideoBitrate:vector ETV
attr recordingmode vector
attr title "Requested video bitrate"
vector 276 baselineTestQoS.hostLVD[1].app[0] DASHVideoResolution:vector ETV
attr recordingmode vector
attr title "Requested video resolution"
vector 277 baselineTestQoS.hostLVD[2].app[0] DASHBufferLength:vector ETV
attr recordingmode vector
attr title "Video buffer length (in seconds)"
vector 278 baselineTestQoS.hostLVD[2].app[0] DASHVideoPlaybackPointer:vector ETV
attr recordingmode vector
attr title "Video playback pointer"
vector 279 baselineTestQoS.hostLVD[2].app[0] DASHVideoBitrate:vector ETV
attr recordingmode vector
attr title "Requested video bitrate"
vector 280 baselineTestQoS.hostLVD[2].app[0] DASHVideoResolution:vector ETV
attr recordingmode vector
attr title "Requested video resolution"
vector 281 baselineTestQoS.hostLVD[3].app[0] DASHBufferLength:vector ETV
attr recordingmode vector
attr title "Video buffer length (in seconds)"
vector 282 baselineTestQoS.hostLVD[3].app[0] DASHVideoPlaybackPointer:vector ETV
attr recordingmode vector
attr title "Video playback pointer"
vector 283 baselineTestQoS.hostLVD[3].app[0] DASHVideoBitrate:vector ETV
attr recordingmode vector
attr title "Requested video bitrate"
vector 284 baselineTestQoS.hostLVD[3].app[0] DASHVideoResolution:vector ETV
attr recordingmode vector
attr title "Requested video resolution"
vector 285 baselineTestQoS.hostLVD[4].app[0] DASHBufferLength:vector ETV
attr recordingmode vector
attr title "Video buffer length (in seconds)"
vector 286 baselineTestQoS.hostLVD[4].app[0] DASHVideoPlaybackPointer:vector ETV
attr recordingmode vector
attr title "Video playback pointer"
vector 287 baselineTestQoS.hostLVD[4].app[0] DASHVideoBitrate:vector ETV
attr recordingmode vector
attr title "Requested video bitrate"
vector 288 baselineTestQoS.hostLVD[4].app[0] DASHVideoResolution:vector ETV
attr recordingmode vector
attr title "Requested video resolution"
vector 289 baselineTestQoS.hostLVD[5].app[0] DASHBufferLength:vector ETV
attr recordingmode vector
attr title "Video buffer length (in seconds)"
vector 290 baselineTestQoS.hostLVD[5].app[0] DASHVideoPlaybackPointer:vector ETV
attr recordingmode vector
attr title "Video playback pointer"
vector 291 baselineTestQoS.hostLVD[5].app[0] DASHVideoBitrate:vector ETV
attr recordingmode vector
attr title "Requested video bitrate"
vector 292 baselineTestQoS.hostLVD[5].app[0] DASHVideoResolution:vector ETV
attr recordingmode vector
attr title "Requested video resolution"
vector 293 baselineTestQoS.hostLVD[6].app[0] DASHBufferLength:vector ETV
attr recordingmode vector
attr title "Video buffer length (in seconds)"
vector 294 baselineTestQoS.hostLVD[6].app[0] DASHVideoPlaybackPointer:vector ETV
attr recordingmode vector
attr title "Video playback pointer"
vector 295 baselineTestQoS.hostLVD[6].app[0] DASHVideoBitrate:vector ETV
attr recordingmode vector
attr title "Requested video bitrate"
vector 296 baselineTestQoS.hostLVD[6].app[0] DASHVideoResolution:vector ETV
attr recordingmode vector
attr title "Requested video resolution"
vector 297 baselineTestQoS.hostLVD[7].app[0] DASHBufferLength:vector ETV
attr recordingmode vector
attr title "Video buffer length (in seconds)"
vector 298 baselineTestQoS.hostLVD[7].app[0] DASHVideoPlaybackPointer:vector ETV
attr recordingmode vector
attr title "Video playback pointer"
vector 299 baselineTestQoS.hostLVD[7].app[0] DASHVideoBitrate:vector ETV
attr recordingmode vector
attr title "Requested video bitrate"
vector 300 baselineTestQoS.hostLVD[7].app[0] DASHVideoResolution:vector ETV
attr recordingmode vector
attr title "Requested video resolution"
vector 301 baselineTestQoS.hostLVD[8].app[0] DASHBufferLength:vector ETV
attr recordingmode vector
attr title "Video buffer length (in seconds)"
vector 302 baselineTestQoS.hostLVD[8].app[0] DASHVideoPlaybackPointer:vector ETV
attr recordingmode vector
attr title "Video playback pointer"
vector 303 baselineTestQoS.hostLVD[8].app[0] DASHVideoBitrate:vector ETV
attr recordingmode vector
attr title "Requested video bitrate"
vector 304 baselineTestQoS.hostLVD[8].app[0] DASHVideoResolution:vector ETV
attr recordingmode vector
attr title "Requested video resolution"
vector 305 baselineTestQoS.hostLVD[9].app[0] DASHBufferLength:vector ETV
attr recordingmode vector
attr title "Video buffer length (in seconds)"
vector 306 baselineTestQoS.hostLVD[9].app[0] DASHVideoPlaybackPointer:vector ETV
attr recordingmode vector
attr title "Video playback pointer"
vector 307 baselineTestQoS.hostLVD[9].app[0] DASHVideoBitrate:vector ETV
attr recordingmode vector
attr title "Requested video bitrate"
vector 308 baselineTestQoS.hostLVD[9].app[0] DASHVideoResolution:vector ETV
attr recordingmode vector
attr title "Requested video resolution"
vector 309 baselineTestQoS.hostLVD[10].app[0] DASHBufferLength:vector ETV
attr recordingmode vector
attr title "Video buffer length (in seconds)"
vector 310 baselineTestQoS.hostLVD[10].app[0] DASHVideoPlaybackPointer:vector ETV
attr recordingmode vector
attr title "Video playback pointer"
vector 311 baselineTestQoS.hostLVD[10].app[0] DASHVideoBitrate:vector ETV
attr recordingmode vector
attr title "Requested video bitrate"
vector 312 baselineTestQoS.hostLVD[10].app[0] DASHVideoResolution:vector ETV
attr recordingmode vector
attr title "Requested video resolution"
vector 313 baselineTestQoS.hostLVD[11].app[0] DASHBufferLength:vector ETV
attr recordingmode vector
attr title "Video buffer length (in seconds)"
vector 314 baselineTestQoS.hostLVD[11].app[0] DASHVideoPlaybackPointer:vector ETV
attr recordingmode vector
attr title "Video playback pointer"
vector 315 baselineTestQoS.hostLVD[11].app[0] DASHVideoBitrate:vector ETV
attr recordingmode vector
attr title "Requested video bitrate"
vector 316 baselineTestQoS.hostLVD[11].app[0] DASHVideoResolution:vector ETV
attr recordingmode vector
attr title "Requested video resolution"
vector 317 baselineTestQoS.hostLVD[12].app[0] DASHBufferLength:vector ETV
attr recordingmode vector
attr title "Video buffer length (in seconds)"
vector 318 baselineTestQoS.hostLVD[12].app[0] DASHVideoPlaybackPointer:vector ETV
attr recordingmode vector
attr title "Video playback pointer"
vector 319 baselineTestQoS.hostLVD[12].app[0] DASHVideoBitrate:vector ETV
attr recordingmode vector
attr title "Requested video bitrate"
vector 320 baselineTestQoS.hostLVD[12].app[0] DASHVideoResolution:vector ETV
attr recordingmode vector
attr title "Requested video resolution"
vector 321 baselineTestQoS.hostLVD[13].app[0] DASHBufferLength:vector ETV
attr recordingmode vector
attr title "Video buffer length (in seconds)"
vector 322 baselineTestQoS.hostLVD[13].app[0] DASHVideoPlaybackPointer:vector ETV
attr recordingmode vector
attr title "Video playback pointer"
vector 323 baselineTestQoS.hostLVD[13].app[0] DASHVideoBitrate:vector ETV
attr recordingmode vector
attr title "Requested video bitrate"
vector 324 baselineTestQoS.hostLVD[13].app[0] DASHVideoResolution:vector ETV
attr recordingmode vector
attr title "Requested video resolution"
vector 325 baselineTestQoS.hostLVD[14].app[0] DASHBufferLength:vector ETV
attr recordingmode vector
attr title "Video buffer length (in seconds)"
vector 326 baselineTestQoS.hostLVD[14].app[0] DASHVideoPlaybackPointer:vector ETV
attr recordingmode vector
attr title "Video playback pointer"
vector 327 baselineTestQoS.hostLVD[14].app[0] DASHVideoBitrate:vector ETV
attr recordingmode vector
attr title "Requested video bitrate"
vector 328 baselineTestQoS.hostLVD[14].app[0] DASHVideoResolution:vector ETV
attr recordingmode vector
attr title "Requested video resolution"
vector 329 baselineTestQoS.hostLVD[15].app[0] DASHBufferLength:vector ETV
attr recordingmode vector
attr title "Video buffer length (in seconds)"
vector 330 baselineTestQoS.hostLVD[15].app[0] DASHVideoPlaybackPointer:vector ETV
attr recordingmode vector
attr title "Video playback pointer"
vector 331 baselineTestQoS.hostLVD[15].app[0] DASHVideoBitrate:vector ETV
attr recordingmode vector
attr title "Requested video bitrate"
vector 332 baselineTestQoS.hostLVD[15].app[0] DASHVideoResolution:vector ETV
attr recordingmode vector
attr title "Requested video resolution"
vector 333 baselineTestQoS.hostLVD[16].app[0] DASHBufferLength:vector ETV
attr recordingmode vector
attr title "Video buffer length (in seconds)"
vector 334 baselineTestQoS.hostLVD[16].app[0] DASHVideoPlaybackPointer:vector ETV
attr recordingmode vector
attr title "Video playback pointer"
vector 335 baselineTestQoS.hostLVD[16].app[0] DASHVideoBitrate:vector ETV
attr recordingmode vector
attr title "Requested video bitrate"
vector 336 baselineTestQoS.hostLVD[16].app[0] DASHVideoResolution:vector ETV
attr recordingmode vector
attr title "Requested video resolution"
vector 337 baselineTestQoS.hostLVD[17].app[0] DASHBufferLength:vector ETV
attr recordingmode vector
attr title "Video buffer length (in seconds)"
vector 338 baselineTestQoS.hostLVD[17].app[0] DASHVideoPlaybackPointer:vector ETV
attr recordingmode vector
attr title "Video playback pointer"
vector 339 baselineTestQoS.hostLVD[17].app[0] DASHVideoBitrate:vector ETV
attr recordingmode vector
attr title "Requested video bitrate"
vector 340 baselineTestQoS.hostLVD[17].app[0] DASHVideoResolution:vector ETV
attr recordingmode vector
attr title "Requested video resolution"
vector 341 baselineTestQoS.hostLVD[18].app[0] DASHBufferLength:vector ETV
attr recordingmode vector
attr title "Video buffer length (in seconds)"
vector 342 baselineTestQoS.hostLVD[18].app[0] DASHVideoPlaybackPointer:vector ETV
attr recordingmode vector
attr title "Video playback pointer"
vector 343 baselineTestQoS.hostLVD[18].app[0] DASHVideoBitrate:vector ETV
attr recordingmode vector
attr title "Requested video bitrate"
vector 344 baselineTestQoS.hostLVD[18].app[0] DASHVideoResolution:vector ETV
attr recordingmode vector
attr title "Requested video resolution"
0	0	0	0
1	0	0	0
2	0	0	0
3	0	0	0
4	0	0	0
5	0	0	0
6	0	0	0
7	0	0	0
8	0	0	0
9	0	0	0
10	0	0	0
11	0	0	0
12	0	0	0
13	0	0	0
14	0	0	0
15	0	0	0
16	0	0	0
17	0	0	0
18	0	0	0
19	0	0	0
20	0	0	0
21	0	0	0
22	0	0	0
23	0	0	0
24	0	0	0
25	0	0	0
26	0	0	0
27	0	0	0
28	0	0	0
29	0	0	0
30	0	0	0
31	0	0	0
32	0	0	0
33	0	0	0
34	0	0	0
35	0	0	0
36	0	0	0
37	0	0	0
38	0	0	0
39	0	0	0
40	0	0	0
41	0	0	0
42	0	0	0
43	0	0	0
44	0	0	0
45	0	0	0
46	0	0	0
47	0	0	0
48	0	0	0
49	0	0	0
50	0	0	0
51	0	0	0
52	0	0	0
53	0	0	0
54	0	0	0
55	0	0	0
56	0	0	0
57	0	0	0
58	0	0	0
59	0	0	0
60	0	0	0
61	0	0	0
62	0	0	0
63	0	0	0
64	0	0	0
65	0	0	0
66	0	0	0
67	0	0	0
68	0	0	0
69	0	0	0
70	0	0	0
71	0	0	0
72	0	0	0
73	0	0	0
74	0	0	0
75	0	0	0
76	0	0	0
77	0	0	0
78	0	0	0
79	0	0	0
80	0	0	0
81	0	0	0
82	0	0	0
83	0	0	277
84	0	0	360
85	0	0	0
86	0	0	0
87	0	0	388
88	0	0	360
89	0	0	0
90	0	0	0
91	0	0	244
92	0	0	360
93	0	0	0
94	0	0	0
95	0	0	324
96	0	0	360
97	0	0	0
98	0	0	0
99	0	0	396
100	0	0	360
101	0	0	0
102	0	0	0
103	0	0	336
104	0	0	360
105	0	0	0
106	0	0	0
107	0	0	340
108	0	0	360
109	0	0	0
110	0	0	0
111	0	0	272
112	0	0	360
113	0	0	0
114	0	0	0
115	0	0	334
116	0	0	360
117	0	0	0
118	0	0	0
119	0	0	367
120	0	0	360
121	0	0	0
122	0	0	0
123	0	0	288
124	0	0	360
125	0	0	0
126	0	0	0
127	0	0	256
128	0	0	360
129	0	0	0
130	0	0	0
131	0	0	344
132	0	0	360
133	0	0	0
134	0	0	0
135	0	0	292
136	0	0	360
137	0	0	0
138	0	0	0
139	0	0	357
140	0	0	360
141	0	0	0
142	0	0	0
143	0	0	395
144	0	0	360
145	0	0	0
146	0	0	0
147	0	0	337
148	0	0	360
149	0	0	0
150	0	0	0
151	0	0	400
152	0	0	360
153	0	0	0
154	0	0	0
155	0	0	363
156	0	0	360
157	0	0	0
158	0	0	0
159	0	0	336
160	0	0	360
161	0	0	0
162	0	0	0
163	0	0	391
164	0	0	360
165	0	0	0
166	0	0	0
167	0	0	319
168	0	0	360
169	0	0	0
170	0	0	0
171	0	0	408
172	0	0	360
173	0	0	0
174	0	0	0
175	0	0	428
176	0	0	360
177	0	0	0
178	0	0	0
179	0	0	267
180	0	0	360
181	0	0	0
182	0	0	0
183	0	0	419
184	0	0	360
185	0	0	0
186	0	0	0
187	0	0	400
188	0	0	360
189	0	0	0
190	0	0	0
191	0	0	329
192	0	0	360
193	0	0	0
194	0	0	0
195	0	0	264
196	0	0	360
197	0	0	0
198	0	0	0
199	0	0	266
200	0	0	360
201	0	0	0
202	0	0	0
203	0	0	289
204	0	0	360
205	0	0	0
206	0	0	0
207	0	0	322
208	0	0	360
209	0	0	0
210	0	0	0
211	0	0	314
212	0	0	360
213	0	0	0
214	0	0	0
215	0	0	354
216	0	0	360
217	0	0	0
218	0	0	0
219	0	0	301
220	0	0	360
221	0	0	0
222	0	0	0
223	0	0	363
224	0	0	360
225	0	0	0
226	0	0	0
227	0	0	322
228	0	0	360
229	0	0	0
230	0	0	0
231	0	0	280
232	0	0	360
233	0	0	0
234	0	0	0
235	0	0	293
236	0	0	360
237	0	0	0
238	0	0	0
239	0	0	327
240	0	0	360
241	0	0	0
242	0	0	0
243	0	0	335
244	0	0	360
245	0	0	0
246	0	0	0
247	0	0	323
248	0	0	360
249	0	0	0
250	0	0	0
251	0	0	352
252	0	0	360
253	0	0	0
254	0	0	0
255	0	0	408
256	0	0	360
257	0	0	0
258	0	0	0
259	0	0	317
260	0	0	360
261	0	0	0
262	0	0	0
263	0	0	349
264	0	0	360
265	0	0	0
266	0	0	0
267	0	0	417
268	0	0	360
269	0	0	0
270	0	0	0
271	0	0	113
272	0	0	240
273	0	0	0
274	0	0	0
275	0	0	128
276	0	0	240
277	0	0	0
278	0	0	0
279	0	0	134
280	0	0	240
281	0	0	0
282	0	0	0
283	0	0	114
284	0	0	240
285	0	0	0
286	0	0	0
287	0	0	74
288	0	0	240
289	0	0	0
290	0	0	0
291	0	0	99
292	0	0	240
293	0	0	0
294	0	0	0
295	0	0	110
296	0	0	240
297	0	0	0
298	0	0	0
299	0	0	142
300	0	0	240
301	0	0	0
302	0	0	0
303	0	0	123
304	0	0	240
305	0	0	0
306	0	0	0
307	0	0	144
308	0	0	240
309	0	0	0
310	0	0	0
311	0	0	119
312	0	0	240
313	0	0	0
314	0	0	0
315	0	0	132
316	0	0	240
317	0	0	0
318	0	0	0
319	0	0	106
320	0	0	240
321	0	0	0
322	0	0	0
323	0	0	134
324	0	0	240
325	0	0	0
326	0	0	0
327	0	0	110
328	0	0	240
329	0	0	0
330	0	0	0
331	0	0	108
332	0	0	240
333	0	0	0
334	0	0	0
335	0	0	128
336	0	0	240
337	0	0	0
338	0	0	0
339	0	0	97
340	0	0	240
341	0	0	0
342	0	0	0
343	0	0	128
344	0	0	240

